/*---------------------------------------------------------------------------*\
| =========                 |                                                 |
| \\      /  F ield         | OpenFOAM: The Open Source CFD Toolbox           |
|  \\    /   O peration     | Version:  v1906                                 |
|   \\  /    A nd           | Web:      www.OpenFOAM.com                      |
|    \\/     M anipulation  |                                                 |
\*---------------------------------------------------------------------------*/
Build  : v1906 OPENFOAM=1906
Arch   : "LSB;label=64;scalar=64"
Exec   : olaDyMFlow -parallel
Date   : Jan 12 2021
Time   : 19:01:33
Host   : callum
PID    : 30139
I/O    : uncollated
Case   : /home/callum/OpenFOAM/callum-v1906/run/olaFlowTurbine_clean/olaFlowTurbine
nProcs : 8
Hosts  :
(
    (callum 8)
)
Pstream initialized with:
    floatTransfer      : 0
    nProcsSimpleSum    : 0
    commsType          : nonBlocking
    polling iterations : 0
trapFpe: Floating point exception trapping enabled (FOAM_SIGFPE).
fileModificationChecking : Monitoring run-time modified files using timeStampMaster (fileModificationSkew 10)
allowSystemOperations : Allowing user-supplied system call operations

// * * * * * * * * * * * * * * * * * * * * * * * * * * * * * * * * * * * * * //
Create time

Overriding DebugSwitches according to controlDict
    axialFlowTurbineALSource 0;

    actuatorLineSource 0;

    actuatorLineElement 0;

    LeishmanBeddoes 0;

--> FOAM Warning : 
    From function static Foam::IOstreamOption::compressionType Foam::IOstreamOption::compressionEnum(const Foam::word&)
    in file db/IOstreams/IOstreams/IOstreamOption.C at line 88
    Unknown compression specifier 'uncompressed', assuming no compression
Create mesh for time = 0

Selecting dynamicFvMesh staticFvMesh

PIMPLE: Operating solver in PISO mode

Reading field porosityIndex

Porosity NOT activated

Reading field p_rgh

Reading field U

Reading/calculating face flux field phi

Reading transportProperties

Selecting incompressible transport model Newtonian
Selecting incompressible transport model Newtonian
Selecting turbulence model type laminar
Selecting laminar stress model Stokes

Reading g

Reading hRef
Calculating field g.h

No MRF models present

Creating finite volume options from "system/fvOptions"

Selecting finite volume options type axialFlowTurbineALSource
    Source: turbine
    - selecting cells using cellSet turbine
    - selected 2364 cell(s) with volume 0.611328125
    Source: turbine.blade1
    - selecting cells using cellSet turbine
    - selected 2364 cell(s) with volume 0.611328125
    Source: turbine.blade2
    - selecting cells using cellSet turbine
    - selected 2364 cell(s) with volume 0.611328125
    Source: turbine.blade3
    - selecting cells using cellSet turbine
    - selected 2364 cell(s) with volume 0.611328125
Frontal area of turbine: 1.10846698552
    Source: turbine.hub
    - selecting cells using cellSet turbine
    - selected 2364 cell(s) with volume 0.611328125
    Source: turbine.tower
    - selecting cells using cellSet turbine
    - selected 2364 cell(s) with volume 0.611328125
DICPCG:  Solving for pcorr, Initial residual = 0.999973618053, Final residual = 8.75970628233e-06, No Iterations 60
time step continuity errors : sum local = 1.65064173039e-20, global = -8.30265979302e-22, cumulative = -8.30265979302e-22
Courant Number mean: 0.00855303030303 max: 0.064

Starting time loop

Courant Number mean: 0.00855303030303 max: 0.064
Interface Courant Number mean: 0 max: 0
deltaT = 0.00625
Time = 0.00625

PIMPLE: iteration 1
MULES: Solving for alpha.water
alpha.water BC on patch inlet
Phase-1 volume fraction = 0.666666666667  Min(alpha.water) = 0  Max(alpha.water) = 1
alpha.water BC on patch inlet
MULES: Solving for alpha.water
alpha.water BC on patch inlet
Phase-1 volume fraction = 0.666666666667  Min(alpha.water) = 0  Max(alpha.water) = 1
Force on turbine.blade1: 
(44.2256146062 11.6243043715 -0.391538689471)

Force on turbine.blade2: 
(44.2256146065 -6.15123463751 -9.87117354248)

Force on turbine.blade3: 
(44.2256146065 -5.4730697342 10.262712232)

Force on turbine.hub: 
(2.48041336942 0 0)

Force on turbine.tower: 
(16.960074502 0 0)

Azimuthal angle (degrees) of turbine: 1.92915082536
Tip speed ratio of turbine: 4
Power coefficient from turbine: 0.27642636636
Rotor drag coefficient from turbine: 0.381582206025

DICPCG:  Solving for p_rgh, Initial residual = 1, Final residual = 0.0453078640853, No Iterations 2
time step continuity errors : sum local = 0.0411326948318, global = -0.0242968105351, cumulative = -0.0242968105351
DICPCG:  Solving for p_rgh, Initial residual = 0.0159733226662, Final residual = 0.000711269206049, No Iterations 7
Velocity BC on patch inlet
3D_2D Absorption BC on patch outlet
"Initial water depths for absorption" 1( 2 )

"Correction Levels" 1( 0 )

time step continuity errors : sum local = 0.00188084719123, global = -6.88451312709e-05, cumulative = -0.0243656556664
DICPCG:  Solving for p_rgh, Initial residual = 0.00301631444263, Final residual = 9.54335570593e-08, No Iterations 34
Velocity BC on patch inlet
3D_2D Absorption BC on patch outlet
"Correction Levels" 1( 0 )

time step continuity errors : sum local = 2.97792670807e-07, global = 1.01389057147e-08, cumulative = -0.0243656455275
ExecutionTime = 1.51 s  ClockTime = 2 s

Courant Number mean: 0.0109375215285 max: 0.0874443621879
Interface Courant Number mean: 0 max: 0
deltaT = 0.00729166666667
Time = 0.0135417

PIMPLE: iteration 1
alpha.water BC on patch inlet
MULES: Solving for alpha.water
alpha.water BC on patch inlet
Phase-1 volume fraction = 0.666664236111  Min(alpha.water) = -2.24691826845e-35  Max(alpha.water) = 1.00000286138
alpha.water BC on patch inlet
MULES: Solving for alpha.water
alpha.water BC on patch inlet
Phase-1 volume fraction = 0.666661816494  Min(alpha.water) = -8.62298063841e-24  Max(alpha.water) = 1.00000343394
Velocity BC on patch inlet
3D_2D Absorption BC on patch outlet
"Correction Levels" 1( -0.000219977171222 )

Force on turbine.blade1: 
(63.7486116639 18.4178497361 -1.34600281528)

Force on turbine.blade2: 
(63.7167780264 -10.3714757106 -15.272727293)

Force on turbine.blade3: 
(63.8037886898 -8.04814703493 16.6334434477)

Force on turbine.hub: 
(2.47587311608 0.000150356016431 -1.09882328453e-05)

Force on turbine.tower: 
(16.8495668402 -0.00406338486898 0)

Azimuthal angle (degrees) of turbine: 4.17982678827
Tip speed ratio of turbine: 4
Power coefficient from turbine: 0.441326839287
Rotor drag coefficient from turbine: 0.546989970751

DICPCG:  Solving for p_rgh, Initial residual = 0.000613217216717, Final residual = 2.86699483657e-05, No Iterations 4
time step continuity errors : sum local = 0.000132741038132, global = -2.21703638859e-05, cumulative = -0.0243878158914
DICPCG:  Solving for p_rgh, Initial residual = 0.000466322851028, Final residual = 1.2840041923e-05, No Iterations 2
Velocity BC on patch inlet
3D_2D Absorption BC on patch outlet
"Correction Levels" 1( -0.000219977171222 )

time step continuity errors : sum local = 5.9489861887e-05, global = -3.45523418396e-06, cumulative = -0.0243912711256
DICPCG:  Solving for p_rgh, Initial residual = 0.000304702271637, Final residual = 9.43503360236e-08, No Iterations 23
Velocity BC on patch inlet
3D_2D Absorption BC on patch outlet
"Correction Levels" 1( -0.000219977171222 )

time step continuity errors : sum local = 4.37215968826e-07, global = 8.66064096567e-09, cumulative = -0.0243912624649
ExecutionTime = 1.62 s  ClockTime = 2 s

Courant Number mean: 0.0128556983252 max: 0.0991813198088
Interface Courant Number mean: 0 max: 0
deltaT = 0.00911458333333
Time = 0.0226563

PIMPLE: iteration 1
alpha.water BC on patch inlet
MULES: Solving for alpha.water
alpha.water BC on patch inlet
Phase-1 volume fraction = 0.666658948607  Min(alpha.water) = -7.91336119342e-24  Max(alpha.water) = 1.00000395496
alpha.water BC on patch inlet
MULES: Solving for alpha.water
alpha.water BC on patch inlet
Phase-1 volume fraction = 0.666656096532  Min(alpha.water) = -9.87831020978e-24  Max(alpha.water) = 1.000005652
Velocity BC on patch inlet
3D_2D Absorption BC on patch outlet
"Correction Levels" 1( -0.000474360675941 )

Force on turbine.blade1: 
(63.8050315419 18.3124437965 -2.2462701049)

Force on turbine.blade2: 
(63.7926346929 -11.1002149789 -14.7341359046)

Force on turbine.blade3: 
(63.8611673929 -7.21606697548 16.9943571399)

Force on turbine.hub: 
(2.47104101485 0.000160395155045 -1.96746455989e-05)

Force on turbine.tower: 
(16.9336699926 -0.00312370004865 0)

Azimuthal angle (degrees) of turbine: 6.99317174192
Tip speed ratio of turbine: 4
Power coefficient from turbine: 0.440905381043
Rotor drag coefficient from turbine: 0.547511771987

DICPCG:  Solving for p_rgh, Initial residual = 0.000326867893619, Final residual = 6.62159960739e-06, No Iterations 2
time step continuity errors : sum local = 4.66810559927e-05, global = 2.6218948755e-07, cumulative = -0.0243910002754
DICPCG:  Solving for p_rgh, Initial residual = 9.05430632257e-05, Final residual = 4.40053137642e-06, No Iterations 2
Velocity BC on patch inlet
3D_2D Absorption BC on patch outlet
"Correction Levels" 1( -0.000474360675941 )

time step continuity errors : sum local = 3.10183248311e-05, global = -1.96335658466e-06, cumulative = -0.024392963632
DICPCG:  Solving for p_rgh, Initial residual = 6.08623976998e-05, Final residual = 8.02159696087e-08, No Iterations 19
Velocity BC on patch inlet
3D_2D Absorption BC on patch outlet
"Correction Levels" 1( -0.000474360675941 )

time step continuity errors : sum local = 5.65400447379e-07, global = -3.34979496287e-09, cumulative = -0.0243929669818
ExecutionTime = 1.73 s  ClockTime = 2 s

Courant Number mean: 0.0161880861239 max: 0.122688989456
Interface Courant Number mean: 0 max: 0
deltaT = 0.013671875
Time = 0.0363281

PIMPLE: iteration 1
alpha.water BC on patch inlet
MULES: Solving for alpha.water
alpha.water BC on patch inlet
Phase-1 volume fraction = 0.666652095195  Min(alpha.water) = -1.7177784054e-23  Max(alpha.water) = 1.00000985303
alpha.water BC on patch inlet
MULES: Solving for alpha.water
alpha.water BC on patch inlet
Phase-1 volume fraction = 0.666648126303  Min(alpha.water) = -1.1483371651e-23  Max(alpha.water) = 1.00001401902
Velocity BC on patch inlet
3D_2D Absorption BC on patch outlet
"Correction Levels" 1( -0.000818394719918 )

Force on turbine.blade1: 
(63.8679293583 18.0740646629 -3.58308504044)

Force on turbine.blade2: 
(63.8674397691 -12.1413429014 -13.8625042666)

Force on turbine.blade3: 
(63.9152744999 -5.93798250965 17.4558794355)

Force on turbine.hub: 
(2.46524272432 0.000272699930129 -5.40612783232e-05)

Force on turbine.tower: 
(16.9692358342 -0.00305048181082 0)

Azimuthal angle (degrees) of turbine: 11.2131891724
Tip speed ratio of turbine: 4
Power coefficient from turbine: 0.440334176346
Rotor drag coefficient from turbine: 0.548036928829

DICPCG:  Solving for p_rgh, Initial residual = 0.000307505871508, Final residual = 6.33315645956e-06, No Iterations 2
time step continuity errors : sum local = 9.66888653326e-05, global = -1.22167583945e-05, cumulative = -0.0244051837402
DICPCG:  Solving for p_rgh, Initial residual = 7.36787986097e-05, Final residual = 3.31593010237e-06, No Iterations 2
Velocity BC on patch inlet
3D_2D Absorption BC on patch outlet
"Correction Levels" 1( -0.000818394719918 )

time step continuity errors : sum local = 5.06141886897e-05, global = -1.4155584674e-05, cumulative = -0.0244193393249
DICPCG:  Solving for p_rgh, Initial residual = 4.74890873584e-05, Final residual = 8.11523375659e-08, No Iterations 15
Velocity BC on patch inlet
3D_2D Absorption BC on patch outlet
"Correction Levels" 1( -0.000818394719918 )

time step continuity errors : sum local = 1.23871004935e-06, global = 6.17462658452e-08, cumulative = -0.0244192775786
ExecutionTime = 1.84 s  ClockTime = 2 s

Courant Number mean: 0.0245498787915 max: 0.18327208682
Interface Courant Number mean: 1.6196378778e-06 max: 0.0912898124196
deltaT = 0.013671875
Time = 0.05

PIMPLE: iteration 1
alpha.water BC on patch inlet
MULES: Solving for alpha.water
alpha.water BC on patch inlet
Phase-1 volume fraction = 0.666644529047  Min(alpha.water) = -1.74833588202e-23  Max(alpha.water) = 1.0000088039
alpha.water BC on patch inlet
MULES: Solving for alpha.water
alpha.water BC on patch inlet
Phase-1 volume fraction = 0.666640959978  Min(alpha.water) = -1.19665624329e-23  Max(alpha.water) = 1.00001294237
Velocity BC on patch inlet
3D_2D Absorption BC on patch outlet
"Correction Levels" 1( -0.00111036520106 )

Force on turbine.blade1: 
(63.9715415019 17.7333932292 -4.89564947822)

Force on turbine.blade2: 
(63.9752748473 -13.1100099926 -12.9132474756)

Force on turbine.blade3: 
(64.0198330228 -4.63048904817 17.8190519968)

Force on turbine.hub: 
(2.45643303948 0.000389167982359 -0.000107437420755)

Force on turbine.tower: 
(16.9929336472 -0.00131946471483 0)

Azimuthal angle (degrees) of turbine: 15.4332066029
Tip speed ratio of turbine: 4
Power coefficient from turbine: 0.439612787868
Rotor drag coefficient from turbine: 0.548904218922

DICPCG:  Solving for p_rgh, Initial residual = 0.000245714389607, Final residual = 5.0961302521e-06, No Iterations 2
time step continuity errors : sum local = 7.54673546207e-05, global = -1.32398156394e-05, cumulative = -0.0244325173943
DICPCG:  Solving for p_rgh, Initial residual = 1.81221561676e-05, Final residual = 6.50986612113e-07, No Iterations 5
Velocity BC on patch inlet
3D_2D Absorption BC on patch outlet
"Correction Levels" 1( -0.00111036520106 )

time step continuity errors : sum local = 9.63858507054e-06, global = -5.18571404691e-07, cumulative = -0.0244330359657
DICPCG:  Solving for p_rgh, Initial residual = 9.4794415989e-06, Final residual = 8.40181212629e-08, No Iterations 6
Velocity BC on patch inlet
3D_2D Absorption BC on patch outlet
"Correction Levels" 1( -0.00111036520106 )

time step continuity errors : sum local = 1.2439745856e-06, global = -3.13304793761e-09, cumulative = -0.0244330390987
ExecutionTime = 1.98 s  ClockTime = 3 s

Courant Number mean: 0.0247944985861 max: 0.182646540031
Interface Courant Number mean: 2.09503051698e-05 max: 0.0910609600977
deltaT = 0.0166666666667
Time = 0.0666667

PIMPLE: iteration 1
alpha.water BC on patch inlet
MULES: Solving for alpha.water
alpha.water BC on patch inlet
Phase-1 volume fraction = 0.666636992685  Min(alpha.water) = -1.62878239438e-23  Max(alpha.water) = 1.00001313017
alpha.water BC on patch inlet
MULES: Solving for alpha.water
alpha.water BC on patch inlet
Phase-1 volume fraction = 0.66663306172  Min(alpha.water) = -1.62804683787e-23  Max(alpha.water) = 1.00001193211
Velocity BC on patch inlet
3D_2D Absorption BC on patch outlet
"Correction Levels" 1( -0.00141050597589 )

Force on turbine.blade1: 
(64.0600402115 17.2052603053 -6.45935954083)

Force on turbine.blade2: 
(64.0781009714 -14.2041801492 -11.676744423)

Force on turbine.blade3: 
(64.1176278094 -3.01137178082 18.1462089722)

Force on turbine.hub: 
(2.44795796212 0.000517204756303 -0.000194173840902)

Force on turbine.tower: 
(16.9956769579 0.0012958750474 0)

Azimuthal angle (degrees) of turbine: 20.5776088038
Tip speed ratio of turbine: 4
Power coefficient from turbine: 0.439161151639
Rotor drag coefficient from turbine: 0.549696547548

DICPCG:  Solving for p_rgh, Initial residual = 0.000243600575187, Final residual = 5.38579336173e-06, No Iterations 2
time step continuity errors : sum local = 0.000114728238665, global = -2.47198737115e-05, cumulative = -0.0244577589724
DICPCG:  Solving for p_rgh, Initial residual = 2.01283727547e-05, Final residual = 9.88809832479e-07, No Iterations 4
Velocity BC on patch inlet
3D_2D Absorption BC on patch outlet
"Correction Levels" 1( -0.00141050597589 )

time step continuity errors : sum local = 2.10594066186e-05, global = -1.62042334576e-06, cumulative = -0.0244593793958
DICPCG:  Solving for p_rgh, Initial residual = 1.11005131944e-05, Final residual = 8.08983035937e-08, No Iterations 12
Velocity BC on patch inlet
3D_2D Absorption BC on patch outlet
"Correction Levels" 1( -0.00141050597589 )

time step continuity errors : sum local = 1.72293807892e-06, global = -3.82042359847e-08, cumulative = -0.0244594176
ExecutionTime = 2.08 s  ClockTime = 3 s

Courant Number mean: 0.0305772579652 max: 0.222522988049
Interface Courant Number mean: 6.37649523909e-05 max: 0.110684169849
deltaT = 0.0166666666667
Time = 0.0833333

PIMPLE: iteration 1
alpha.water BC on patch inlet
MULES: Solving for alpha.water
alpha.water BC on patch inlet
Phase-1 volume fraction = 0.666629522547  Min(alpha.water) = -8.25526504246e-23  Max(alpha.water) = 1.00001345299
alpha.water BC on patch inlet
MULES: Solving for alpha.water
alpha.water BC on patch inlet
Phase-1 volume fraction = 0.666626013732  Min(alpha.water) = -1.49925288792e-22  Max(alpha.water) = 1.00001525299
Velocity BC on patch inlet
3D_2D Absorption BC on patch outlet
"Correction Levels" 1( -0.00165191828236 )

Force on turbine.blade1: 
(64.1386287839 16.5343926048 -7.96529037569)

Force on turbine.blade2: 
(64.1775282247 -15.1793587109 -10.3461137915)

Force on turbine.blade3: 
(64.2123645872 -1.37071969598 18.324136882)

Force on turbine.hub: 
(2.43806499446 0.000639713795839 -0.000308176191469)

Force on turbine.tower: 
(16.9848377272 0.00549100229721 0)

Azimuthal angle (degrees) of turbine: 25.7220110048
Tip speed ratio of turbine: 4
Power coefficient from turbine: 0.43858822894
Rotor drag coefficient from turbine: 0.550438665002

DICPCG:  Solving for p_rgh, Initial residual = 0.000195565202511, Final residual = 4.6845418638e-06, No Iterations 2
time step continuity errors : sum local = 9.69981590159e-05, global = -2.77590112814e-05, cumulative = -0.0244871766113
DICPCG:  Solving for p_rgh, Initial residual = 1.52015952481e-05, Final residual = 5.28498936482e-07, No Iterations 5
Velocity BC on patch inlet
3D_2D Absorption BC on patch outlet
"Correction Levels" 1( -0.00165191828236 )

time step continuity errors : sum local = 1.09411666554e-05, global = 1.9944616701e-07, cumulative = -0.0244869771651
DICPCG:  Solving for p_rgh, Initial residual = 8.15419193048e-06, Final residual = 6.44712156368e-08, No Iterations 5
Velocity BC on patch inlet
3D_2D Absorption BC on patch outlet
"Correction Levels" 1( -0.00165191828236 )

time step continuity errors : sum local = 1.33470278513e-06, global = -4.44211256036e-07, cumulative = -0.0244874213764
ExecutionTime = 2.19 s  ClockTime = 3 s

Courant Number mean: 0.030902403453 max: 0.222604591523
Interface Courant Number mean: 8.48870018276e-05 max: 0.110275528328
deltaT = 0.0166666666667
Time = 0.1

PIMPLE: iteration 1
alpha.water BC on patch inlet
MULES: Solving for alpha.water
alpha.water BC on patch inlet
Phase-1 volume fraction = 0.666622818023  Min(alpha.water) = -6.84416146076e-23  Max(alpha.water) = 1.00001631013
alpha.water BC on patch inlet
MULES: Solving for alpha.water
alpha.water BC on patch inlet
Phase-1 volume fraction = 0.666619647704  Min(alpha.water) = -1.46087169912e-22  Max(alpha.water) = 1.00001730955
Velocity BC on patch inlet
3D_2D Absorption BC on patch outlet
"Correction Levels" 1( -0.00184757609981 )

Force on turbine.blade1: 
(64.2049475328 15.7367867291 -9.40574780463)

Force on turbine.blade2: 
(64.2486303513 -16.030869625 -8.93498012802)

Force on turbine.blade3: 
(64.2800705616 0.277504242202 18.3499164451)

Force on turbine.hub: 
(2.42808564434 0.000775858689036 -0.000463724347715)

Force on turbine.tower: 
(16.964232231 0.0105621505112 0)

Azimuthal angle (degrees) of turbine: 30.8664132057
Tip speed ratio of turbine: 4
Power coefficient from turbine: 0.438083806158
Rotor drag coefficient from turbine: 0.55098961443

DICPCG:  Solving for p_rgh, Initial residual = 0.000160975101102, Final residual = 4.05702795828e-06, No Iterations 2
time step continuity errors : sum local = 8.2068319318e-05, global = -2.53336730927e-05, cumulative = -0.0245127550495
DICPCG:  Solving for p_rgh, Initial residual = 1.5474135863e-05, Final residual = 6.68189486162e-07, No Iterations 4
Velocity BC on patch inlet
3D_2D Absorption BC on patch outlet
"Correction Levels" 1( -0.00184757609981 )

time step continuity errors : sum local = 1.35145341016e-05, global = -2.41312633192e-06, cumulative = -0.0245151681758
DICPCG:  Solving for p_rgh, Initial residual = 8.47141685604e-06, Final residual = 6.03969408448e-08, No Iterations 6
Velocity BC on patch inlet
3D_2D Absorption BC on patch outlet
"Correction Levels" 1( -0.00184757609981 )

time step continuity errors : sum local = 1.2215621525e-06, global = -3.50287344724e-07, cumulative = -0.0245155184632
ExecutionTime = 2.34 s  ClockTime = 3 s

Courant Number mean: 0.031182029615 max: 0.222724680311
Interface Courant Number mean: 0.000139105329135 max: 0.109793064671
deltaT = 0.0166666666667
Time = 0.116667

PIMPLE: iteration 1
alpha.water BC on patch inlet
MULES: Solving for alpha.water
alpha.water BC on patch inlet
Phase-1 volume fraction = 0.66661672879  Min(alpha.water) = -2.31666654992e-23  Max(alpha.water) = 1.0000154605
alpha.water BC on patch inlet
MULES: Solving for alpha.water
alpha.water BC on patch inlet
Phase-1 volume fraction = 0.666613830987  Min(alpha.water) = -6.44981234398e-23  Max(alpha.water) = 1.0000137117
Velocity BC on patch inlet
3D_2D Absorption BC on patch outlet
"Correction Levels" 1( -0.00200892641968 )

Force on turbine.blade1: 
(64.2631921082 14.8206735698 -10.772124606)

Force on turbine.blade2: 
(64.3025651185 -16.7603958589 -7.45841841596)

Force on turbine.blade3: 
(64.3287731398 1.92091257882 18.2431355651)

Force on turbine.hub: 
(2.41811362475 0.000899966206752 -0.000654123314615)

Force on turbine.tower: 
(16.9401162941 0.0160619627219 0)

Azimuthal angle (degrees) of turbine: 36.0108154067
Tip speed ratio of turbine: 4
Power coefficient from turbine: 0.437849730608
Rotor drag coefficient from turbine: 0.551415670228

DICPCG:  Solving for p_rgh, Initial residual = 0.000125406687331, Final residual = 3.41118994285e-06, No Iterations 2
time step continuity errors : sum local = 6.77936109393e-05, global = -1.79752259264e-05, cumulative = -0.0245334936891
DICPCG:  Solving for p_rgh, Initial residual = 1.82865188434e-05, Final residual = 5.78701415114e-07, No Iterations 4
Velocity BC on patch inlet
3D_2D Absorption BC on patch outlet
"Correction Levels" 1( -0.00200892641968 )

time step continuity errors : sum local = 1.14996155691e-05, global = -2.26325466677e-06, cumulative = -0.0245357569437
DICPCG:  Solving for p_rgh, Initial residual = 1.0450221937e-05, Final residual = 8.79597092822e-08, No Iterations 5
Velocity BC on patch inlet
3D_2D Absorption BC on patch outlet
"Correction Levels" 1( -0.00200892641968 )

time step continuity errors : sum local = 1.74787813002e-06, global = -3.76018331013e-07, cumulative = -0.0245361329621
ExecutionTime = 2.45 s  ClockTime = 3 s

Courant Number mean: 0.0314126082428 max: 0.222846711143
Interface Courant Number mean: 0.000172551669741 max: 0.109310329917
deltaT = 0.0166666666667
Time = 0.133333

PIMPLE: iteration 1
alpha.water BC on patch inlet
MULES: Solving for alpha.water
alpha.water BC on patch inlet
Phase-1 volume fraction = 0.666611138298  Min(alpha.water) = -3.14711995714e-23  Max(alpha.water) = 1.00001647572
alpha.water BC on patch inlet
MULES: Solving for alpha.water
alpha.water BC on patch inlet
Phase-1 volume fraction = 0.666608462956  Min(alpha.water) = -5.4914298224e-23  Max(alpha.water) = 1.00001909215
Velocity BC on patch inlet
3D_2D Absorption BC on patch outlet
"Correction Levels" 1( -0.00214536695918 )

Force on turbine.blade1: 
(64.3115797138 13.7939797008 -12.0566853444)

Force on turbine.blade2: 
(64.3348890965 -17.3577395769 -5.92419966875)

Force on turbine.blade3: 
(64.3746883401 3.54792717414 17.9921362671)

Force on turbine.hub: 
(2.40834461302 0.00100296882143 -0.000876649071012)

Force on turbine.tower: 
(16.9138519771 0.0218810125316 0)

Azimuthal angle (degrees) of turbine: 41.1552176076
Tip speed ratio of turbine: 4
Power coefficient from turbine: 0.4377715276
Rotor drag coefficient from turbine: 0.551745588483

DICPCG:  Solving for p_rgh, Initial residual = 9.19232233401e-05, Final residual = 2.95109988351e-06, No Iterations 2
time step continuity errors : sum local = 5.79810519311e-05, global = -7.34820582091e-06, cumulative = -0.0245434811679
DICPCG:  Solving for p_rgh, Initial residual = 1.93121179781e-05, Final residual = 5.50859879168e-07, No Iterations 4
Velocity BC on patch inlet
3D_2D Absorption BC on patch outlet
"Correction Levels" 1( -0.00214536695918 )

time step continuity errors : sum local = 1.08218747877e-05, global = -1.63435212799e-06, cumulative = -0.02454511552
DICPCG:  Solving for p_rgh, Initial residual = 1.12046752473e-05, Final residual = 8.54644829774e-08, No Iterations 5
Velocity BC on patch inlet
3D_2D Absorption BC on patch outlet
"Correction Levels" 1( -0.00214536695918 )

time step continuity errors : sum local = 1.67897818274e-06, global = -4.31646875696e-08, cumulative = -0.0245451586847
ExecutionTime = 2.56 s  ClockTime = 3 s

Courant Number mean: 0.0315890129063 max: 0.22296308613
Interface Courant Number mean: 0.000216067254084 max: 0.10891092397
deltaT = 0.0166666666667
Time = 0.15

PIMPLE: iteration 1
alpha.water BC on patch inlet
MULES: Solving for alpha.water
alpha.water BC on patch inlet
Phase-1 volume fraction = 0.66660595912  Min(alpha.water) = -3.76813687959e-23  Max(alpha.water) = 1.0000213382
alpha.water BC on patch inlet
MULES: Solving for alpha.water
alpha.water BC on patch inlet
Phase-1 volume fraction = 0.666603469131  Min(alpha.water) = -1.71562867391e-22  Max(alpha.water) = 1.00002346391
Velocity BC on patch inlet
3D_2D Absorption BC on patch outlet
"Correction Levels" 1( -0.00226414268476 )

Force on turbine.blade1: 
(64.3365436242 12.6588824941 -13.2465878691)

Force on turbine.blade2: 
(64.3574173063 -17.8211228166 -4.34444673837)

Force on turbine.blade3: 
(64.4097893057 5.14763441482 17.6039704742)

Force on turbine.hub: 
(2.39875170189 0.00107003228957 -0.0011197099549)

Force on turbine.tower: 
(16.887092376 0.0271294006858 0)

Azimuthal angle (degrees) of turbine: 46.2996198086
Tip speed ratio of turbine: 4
Power coefficient from turbine: 0.437819578634
Rotor drag coefficient from turbine: 0.551951685945

DICPCG:  Solving for p_rgh, Initial residual = 7.66804866279e-05, Final residual = 2.72619001831e-06, No Iterations 2
time step continuity errors : sum local = 5.32242497255e-05, global = 3.37945464399e-06, cumulative = -0.0245417792301
DICPCG:  Solving for p_rgh, Initial residual = 1.9633062465e-05, Final residual = 5.77826920035e-07, No Iterations 4
Velocity BC on patch inlet
3D_2D Absorption BC on patch outlet
"Correction Levels" 1( -0.00226414268476 )

time step continuity errors : sum local = 1.12803452925e-05, global = -9.38693300785e-07, cumulative = -0.0245427179234
DICPCG:  Solving for p_rgh, Initial residual = 1.14841648878e-05, Final residual = 9.43421716696e-08, No Iterations 5
Velocity BC on patch inlet
3D_2D Absorption BC on patch outlet
"Correction Levels" 1( -0.00226414268476 )

time step continuity errors : sum local = 1.8417399508e-06, global = 1.26221581195e-07, cumulative = -0.0245425917018
ExecutionTime = 2.71 s  ClockTime = 3 s

Courant Number mean: 0.031725163076 max: 0.223042776829
Interface Courant Number mean: 0.000238298507747 max: 0.10858449957
deltaT = 0.0166666666667
Time = 0.166667

PIMPLE: iteration 1
alpha.water BC on patch inlet
MULES: Solving for alpha.water
alpha.water BC on patch inlet
Phase-1 volume fraction = 0.666601127659  Min(alpha.water) = -5.13386605136e-25  Max(alpha.water) = 1.00001645081
alpha.water BC on patch inlet
MULES: Solving for alpha.water
alpha.water BC on patch inlet
Phase-1 volume fraction = 0.666598796632  Min(alpha.water) = -2.77000822805e-22  Max(alpha.water) = 1.00001837781
Velocity BC on patch inlet
3D_2D Absorption BC on patch outlet
"Correction Levels" 1( -0.0023571827119 )

Force on turbine.blade1: 
(64.3559254197 11.422527552 -14.3313228439)

Force on turbine.blade2: 
(64.3798618378 -18.1453113213 -2.72996153778)

Force on turbine.blade3: 
(64.4190956802 6.70680590175 17.0751219911)

Force on turbine.hub: 
(2.38926684036 0.00110015040613 -0.00138030839281)

Force on turbine.tower: 
(16.8606197799 0.0314606750685 0)

Azimuthal angle (degrees) of turbine: 51.4440220095
Tip speed ratio of turbine: 4
Power coefficient from turbine: 0.437940772126
Rotor drag coefficient from turbine: 0.552069268049

DICPCG:  Solving for p_rgh, Initial residual = 8.83680458478e-05, Final residual = 2.70522506487e-06, No Iterations 2
time step continuity errors : sum local = 5.25258327097e-05, global = 1.95851487647e-06, cumulative = -0.0245406331869
DICPCG:  Solving for p_rgh, Initial residual = 1.80497126008e-05, Final residual = 5.96481183891e-07, No Iterations 4
Velocity BC on patch inlet
3D_2D Absorption BC on patch outlet
"Correction Levels" 1( -0.0023571827119 )

time step continuity errors : sum local = 1.15808510264e-05, global = -8.28568124372e-07, cumulative = -0.024541461755
DICPCG:  Solving for p_rgh, Initial residual = 1.05162270078e-05, Final residual = 9.97609751281e-08, No Iterations 5
Velocity BC on patch inlet
3D_2D Absorption BC on patch outlet
"Correction Levels" 1( -0.0023571827119 )

time step continuity errors : sum local = 1.93687913959e-06, global = 5.60089154625e-08, cumulative = -0.0245414057461
ExecutionTime = 2.81 s  ClockTime = 3 s

Courant Number mean: 0.0318522528502 max: 0.223071871649
Interface Courant Number mean: 0.000239752822993 max: 0.108630541627
deltaT = 0.0166666666667
Time = 0.183333

PIMPLE: iteration 1
alpha.water BC on patch inlet
MULES: Solving for alpha.water
alpha.water BC on patch inlet
Phase-1 volume fraction = 0.666596583735  Min(alpha.water) = -5.96292277156e-23  Max(alpha.water) = 1.00001732392
alpha.water BC on patch inlet
MULES: Solving for alpha.water
alpha.water BC on patch inlet
Phase-1 volume fraction = 0.666594378454  Min(alpha.water) = -1.56819505071e-24  Max(alpha.water) = 1.00001962572
Velocity BC on patch inlet
3D_2D Absorption BC on patch outlet
"Correction Levels" 1( -0.00242443379399 )

Force on turbine.blade1: 
(64.367465002 10.096198166 -15.3049589455)

Force on turbine.blade2: 
(64.3981762288 -18.3271228942 -1.0925475742)

Force on turbine.blade3: 
(64.4210297904 8.21215615078 16.4075757689)

Force on turbine.hub: 
(2.37986869376 0.00108108068848 -0.00163882436557)

Force on turbine.tower: 
(16.8362123081 0.0346425201306 0)

Azimuthal angle (degrees) of turbine: 56.5884242105
Tip speed ratio of turbine: 4
Power coefficient from turbine: 0.438108949394
Rotor drag coefficient from turbine: 0.552132480352

DICPCG:  Solving for p_rgh, Initial residual = 9.92812833835e-05, Final residual = 2.97434968585e-06, No Iterations 2
time step continuity errors : sum local = 5.73055353411e-05, global = -6.24325175872e-06, cumulative = -0.0245476489979
DICPCG:  Solving for p_rgh, Initial residual = 1.913780798e-05, Final residual = 6.33215561543e-07, No Iterations 4
Velocity BC on patch inlet
3D_2D Absorption BC on patch outlet
"Correction Levels" 1( -0.00242443379399 )

time step continuity errors : sum local = 1.21990337687e-05, global = -1.31522716597e-06, cumulative = -0.024548964225
DICPCG:  Solving for p_rgh, Initial residual = 1.1171132876e-05, Final residual = 6.24379821845e-08, No Iterations 6
Velocity BC on patch inlet
3D_2D Absorption BC on patch outlet
"Correction Levels" 1( -0.00242443379399 )

time step continuity errors : sum local = 1.20287814971e-06, global = -1.56358880358e-07, cumulative = -0.0245491205839
ExecutionTime = 2.91 s  ClockTime = 4 s

Courant Number mean: 0.0319894547043 max: 0.223099407736
Interface Courant Number mean: 0.0002405077981 max: 0.108815046131
deltaT = 0.0166666666667
Time = 0.2

PIMPLE: iteration 1
alpha.water BC on patch inlet
MULES: Solving for alpha.water
alpha.water BC on patch inlet
Phase-1 volume fraction = 0.666592259801  Min(alpha.water) = -1.61416118544e-22  Max(alpha.water) = 1.0000197812
alpha.water BC on patch inlet
MULES: Solving for alpha.water
alpha.water BC on patch inlet
Phase-1 volume fraction = 0.666590146897  Min(alpha.water) = -8.79559879654e-29  Max(alpha.water) = 1.00001985937
Velocity BC on patch inlet
3D_2D Absorption BC on patch outlet
"Correction Levels" 1( -0.00245983362901 )

Force on turbine.blade1: 
(64.3853125726 8.68692056055 -16.1555294656)

Force on turbine.blade2: 
(64.4103086714 -18.3563184051 0.555329122224)

Force on turbine.blade3: 
(64.4438963499 9.65461139796 15.6121340079)

Force on turbine.hub: 
(2.37055344956 0.00100968510376 -0.00187776523695)

Force on turbine.tower: 
(16.8139132886 0.0368007503654 0)

Azimuthal angle (degrees) of turbine: 61.7328264114
Tip speed ratio of turbine: 4
Power coefficient from turbine: 0.438281085047
Rotor drag coefficient from turbine: 0.552255380007

DICPCG:  Solving for p_rgh, Initial residual = 0.000117164694731, Final residual = 3.16577094518e-06, No Iterations 2
time step continuity errors : sum local = 6.02638394044e-05, global = -1.73664923033e-05, cumulative = -0.0245664870762
DICPCG:  Solving for p_rgh, Initial residual = 1.96831334828e-05, Final residual = 6.35739282712e-07, No Iterations 4
Velocity BC on patch inlet
3D_2D Absorption BC on patch outlet
"Correction Levels" 1( -0.00245983362901 )

time step continuity errors : sum local = 1.21008562409e-05, global = -2.30557845202e-06, cumulative = -0.0245687926547
DICPCG:  Solving for p_rgh, Initial residual = 1.14173360187e-05, Final residual = 5.98501126689e-08, No Iterations 6
Velocity BC on patch inlet
3D_2D Absorption BC on patch outlet
"Correction Levels" 1( -0.00245983362901 )

time step continuity errors : sum local = 1.13920428188e-06, global = -1.4034701581e-07, cumulative = -0.0245689330017
ExecutionTime = 3.07 s  ClockTime = 4 s

Courant Number mean: 0.0321489516824 max: 0.223292384086
Interface Courant Number mean: 0.00025163944597 max: 0.109028468415
deltaT = 0.0166666666667
Time = 0.216667

PIMPLE: iteration 1
alpha.water BC on patch inlet
MULES: Solving for alpha.water
alpha.water BC on patch inlet
Phase-1 volume fraction = 0.666588080435  Min(alpha.water) = -6.09917361488e-29  Max(alpha.water) = 1.00001976267
alpha.water BC on patch inlet
MULES: Solving for alpha.water
alpha.water BC on patch inlet
Phase-1 volume fraction = 0.666586020773  Min(alpha.water) = -8.2128540377e-23  Max(alpha.water) = 1.00001957021
Velocity BC on patch inlet
3D_2D Absorption BC on patch outlet
"Correction Levels" 1( -0.00247549621528 )

Force on turbine.blade1: 
(64.4029395613 7.20698594236 -16.8779513147)

Force on turbine.blade2: 
(64.4343053998 -18.2442689287 2.20044237586)

Force on turbine.blade3: 
(64.4704764321 11.0181351764 14.6869315562)

Force on turbine.hub: 
(2.3613376325 0.000888893948069 -0.00208168975206)

Force on turbine.tower: 
(16.7940376918 0.0375823636828 0)

Azimuthal angle (degrees) of turbine: 66.8772286124
Tip speed ratio of turbine: 4
Power coefficient from turbine: 0.438471108351
Rotor drag coefficient from turbine: 0.552421917601

DICPCG:  Solving for p_rgh, Initial residual = 0.000139798867959, Final residual = 3.54886002169e-06, No Iterations 2
time step continuity errors : sum local = 6.64523132673e-05, global = -3.00882474592e-05, cumulative = -0.0245990212492
DICPCG:  Solving for p_rgh, Initial residual = 1.91541225522e-05, Final residual = 6.21175631208e-07, No Iterations 4
Velocity BC on patch inlet
3D_2D Absorption BC on patch outlet
"Correction Levels" 1( -0.00247549621528 )

time step continuity errors : sum local = 1.16301407849e-05, global = -3.3957603059e-06, cumulative = -0.0246024170095
DICPCG:  Solving for p_rgh, Initial residual = 1.07822359163e-05, Final residual = 8.55720439128e-08, No Iterations 5
Velocity BC on patch inlet
3D_2D Absorption BC on patch outlet
"Correction Levels" 1( -0.00247549621528 )

time step continuity errors : sum local = 1.60214976556e-06, global = -2.3864091888e-07, cumulative = -0.0246026556504
ExecutionTime = 3.17 s  ClockTime = 4 s

Courant Number mean: 0.0323269913539 max: 0.223368639308
Interface Courant Number mean: 0.000284543729699 max: 0.111021319879
deltaT = 0.0166666666667
Time = 0.233333

PIMPLE: iteration 1
alpha.water BC on patch inlet
MULES: Solving for alpha.water
alpha.water BC on patch inlet
Phase-1 volume fraction = 0.666583984613  Min(alpha.water) = -1.117549354e-28  Max(alpha.water) = 1.00001989736
alpha.water BC on patch inlet
MULES: Solving for alpha.water
alpha.water BC on patch inlet
Phase-1 volume fraction = 0.666581959941  Min(alpha.water) = -1.40525564486e-29  Max(alpha.water) = 1.00002013587
Velocity BC on patch inlet
3D_2D Absorption BC on patch outlet
"Correction Levels" 1( -0.00249510888599 )

Force on turbine.blade1: 
(64.4212795555 5.66615138582 -17.4610482217)

Force on turbine.blade2: 
(64.4704365347 -17.9819747076 3.82928271714)

Force on turbine.blade3: 
(64.5102955442 12.296823082 13.6466413233)

Force on turbine.hub: 
(2.35222110567 0.000723713262543 -0.00223022494732)

Force on turbine.tower: 
(16.7765480439 0.0368611903088 0)

Azimuthal angle (degrees) of turbine: 72.0216308133
Tip speed ratio of turbine: 4
Power coefficient from turbine: 0.43863142277
Rotor drag coefficient from turbine: 0.552662383962

DICPCG:  Solving for p_rgh, Initial residual = 0.000159300652417, Final residual = 4.04311589213e-06, No Iterations 2
time step continuity errors : sum local = 7.4257288602e-05, global = -4.1700579505e-05, cumulative = -0.0246443562299
DICPCG:  Solving for p_rgh, Initial residual = 1.8026822029e-05, Final residual = 6.25669512662e-07, No Iterations 4
Velocity BC on patch inlet
3D_2D Absorption BC on patch outlet
"Correction Levels" 1( -0.00249510888599 )

time step continuity errors : sum local = 1.14897117658e-05, global = -3.63705888842e-06, cumulative = -0.0246479932888
DICPCG:  Solving for p_rgh, Initial residual = 9.69335088748e-06, Final residual = 6.615305651e-08, No Iterations 5
Velocity BC on patch inlet
3D_2D Absorption BC on patch outlet
"Correction Levels" 1( -0.00249510888599 )

time step continuity errors : sum local = 1.21483226133e-06, global = -3.44052052195e-07, cumulative = -0.0246483373408
ExecutionTime = 3.27 s  ClockTime = 4 s

Courant Number mean: 0.0325084535069 max: 0.22328358382
Interface Courant Number mean: 0.000335339610205 max: 0.111341489882
deltaT = 0.0166666666667
Time = 0.25

PIMPLE: iteration 1
alpha.water BC on patch inlet
MULES: Solving for alpha.water
alpha.water BC on patch inlet
Phase-1 volume fraction = 0.666579968714  Min(alpha.water) = -1.14384831257e-30  Max(alpha.water) = 1.00001996283
alpha.water BC on patch inlet
MULES: Solving for alpha.water
alpha.water BC on patch inlet
Phase-1 volume fraction = 0.666577993394  Min(alpha.water) = -1.69433815253e-28  Max(alpha.water) = 1.00001967333
Velocity BC on patch inlet
3D_2D Absorption BC on patch outlet
"Correction Levels" 1( -0.00251936104248 )

Force on turbine.blade1: 
(64.4668192968 4.0796858976 -17.907658137)

Force on turbine.blade2: 
(64.5147813805 -17.5739670936 5.42863685228)

Force on turbine.blade3: 
(64.555387936 13.4762370951 12.4939804185)

Force on turbine.hub: 
(2.34322161822 0.000528873800075 -0.00232147558589)

Force on turbine.tower: 
(16.7618965549 0.0347597957201 0)

Azimuthal angle (degrees) of turbine: 77.1660330143
Tip speed ratio of turbine: 4
Power coefficient from turbine: 0.438767509609
Rotor drag coefficient from turbine: 0.55301804943

DICPCG:  Solving for p_rgh, Initial residual = 0.000170241378115, Final residual = 4.45809965838e-06, No Iterations 2
time step continuity errors : sum local = 8.02619198127e-05, global = -4.94599679277e-05, cumulative = -0.0246977973088
DICPCG:  Solving for p_rgh, Initial residual = 1.68114997734e-05, Final residual = 6.38749828712e-07, No Iterations 4
Velocity BC on patch inlet
3D_2D Absorption BC on patch outlet
"Correction Levels" 1( -0.00251936104248 )

time step continuity errors : sum local = 1.1498135239e-05, global = -3.14789540564e-06, cumulative = -0.0247009452042
DICPCG:  Solving for p_rgh, Initial residual = 8.62997290397e-06, Final residual = 9.89707933913e-08, No Iterations 4
Velocity BC on patch inlet
3D_2D Absorption BC on patch outlet
"Correction Levels" 1( -0.00251936104248 )

time step continuity errors : sum local = 1.78158612548e-06, global = -1.56203646544e-07, cumulative = -0.0247011014078
ExecutionTime = 3.42 s  ClockTime = 4 s

Courant Number mean: 0.0326802297478 max: 0.223117427685
Interface Courant Number mean: 0.000406861566722 max: 0.111424969546
deltaT = 0.0166666666667
Time = 0.266667

PIMPLE: iteration 1
alpha.water BC on patch inlet
MULES: Solving for alpha.water
alpha.water BC on patch inlet
Phase-1 volume fraction = 0.666576060676  Min(alpha.water) = -9.5359776253e-29  Max(alpha.water) = 1.00001986513
alpha.water BC on patch inlet
MULES: Solving for alpha.water
alpha.water BC on patch inlet
Phase-1 volume fraction = 0.666574145532  Min(alpha.water) = -1.92531364681e-30  Max(alpha.water) = 1.00002004683
Velocity BC on patch inlet
3D_2D Absorption BC on patch outlet
"Correction Levels" 1( -0.00253884651557 )

Force on turbine.blade1: 
(64.5451926813 2.45888011175 -18.2112488979)

Force on turbine.blade2: 
(64.5664361667 -17.0225264861 6.98506895964)

Force on turbine.blade3: 
(64.6205750536 14.5451156718 11.2375119665)

Force on turbine.hub: 
(2.33433297684 0.000318219519701 -0.00235683506883)

Force on turbine.tower: 
(16.7493992626 0.0312525045568 0)

Azimuthal angle (degrees) of turbine: 82.3104352152
Tip speed ratio of turbine: 4
Power coefficient from turbine: 0.438869905347
Rotor drag coefficient from turbine: 0.553544095419

DICPCG:  Solving for p_rgh, Initial residual = 0.000170049167727, Final residual = 4.63597167404e-06, No Iterations 2
time step continuity errors : sum local = 8.19423804575e-05, global = -5.20279729166e-05, cumulative = -0.0247531293807
DICPCG:  Solving for p_rgh, Initial residual = 1.48353921907e-05, Final residual = 6.28506789399e-07, No Iterations 4
Velocity BC on patch inlet
3D_2D Absorption BC on patch outlet
"Correction Levels" 1( -0.00253884651557 )

time step continuity errors : sum local = 1.11074480843e-05, global = -2.7410727506e-06, cumulative = -0.0247558704535
DICPCG:  Solving for p_rgh, Initial residual = 7.2120798811e-06, Final residual = 8.94672926358e-08, No Iterations 4
Velocity BC on patch inlet
3D_2D Absorption BC on patch outlet
"Correction Levels" 1( -0.00253884651557 )

time step continuity errors : sum local = 1.58114532887e-06, global = -1.87204207401e-07, cumulative = -0.0247560576577
ExecutionTime = 3.53 s  ClockTime = 4 s

Courant Number mean: 0.03283178786 max: 0.222849494479
Interface Courant Number mean: 0.000464942246379 max: 0.111228107324
deltaT = 0.0166666666667
Time = 0.283333

PIMPLE: iteration 1
alpha.water BC on patch inlet
MULES: Solving for alpha.water
alpha.water BC on patch inlet
Phase-1 volume fraction = 0.666572267659  Min(alpha.water) = -8.77867115629e-29  Max(alpha.water) = 1.00002024294
alpha.water BC on patch inlet
MULES: Solving for alpha.water
alpha.water BC on patch inlet
Phase-1 volume fraction = 0.66657040662  Min(alpha.water) = -1.00898062062e-29  Max(alpha.water) = 1.00002042875
Velocity BC on patch inlet
3D_2D Absorption BC on patch outlet
"Correction Levels" 1( -0.00254969311922 )

Force on turbine.blade1: 
(64.6128891635 0.816251817488 -18.3630777225)

Force on turbine.blade2: 
(64.6297993637 -16.3290508864 8.48401347093)

Force on turbine.blade3: 
(64.6930066182 15.495225343 9.88872688391)

Force on turbine.hub: 
(2.32554984722 0.000103803453814 -0.00233524857086)

Force on turbine.tower: 
(16.7378659372 0.0265391276023 0)

Azimuthal angle (degrees) of turbine: 87.4548374162
Tip speed ratio of turbine: 4
Power coefficient from turbine: 0.438849123345
Rotor drag coefficient from turbine: 0.554093804353

DICPCG:  Solving for p_rgh, Initial residual = 0.000158986835389, Final residual = 4.48991205686e-06, No Iterations 2
time step continuity errors : sum local = 7.81264723489e-05, global = -4.95489031026e-05, cumulative = -0.0248056065608
DICPCG:  Solving for p_rgh, Initial residual = 1.21876220064e-05, Final residual = 5.8669772792e-07, No Iterations 4
Velocity BC on patch inlet
3D_2D Absorption BC on patch outlet
"Correction Levels" 1( -0.00254969311922 )

time step continuity errors : sum local = 1.02073937867e-05, global = -2.54765742751e-06, cumulative = -0.0248081542182
DICPCG:  Solving for p_rgh, Initial residual = 5.4671533764e-06, Final residual = 7.7838657516e-08, No Iterations 4
Velocity BC on patch inlet
3D_2D Absorption BC on patch outlet
"Correction Levels" 1( -0.00254969311922 )

time step continuity errors : sum local = 1.35424905257e-06, global = -2.47247844587e-07, cumulative = -0.0248084014661
ExecutionTime = 3.63 s  ClockTime = 4 s

Courant Number mean: 0.0329567560117 max: 0.222476889217
Interface Courant Number mean: 0.000538386890133 max: 0.110825235897
deltaT = 0.0166666666667
Time = 0.3

PIMPLE: iteration 1
alpha.water BC on patch inlet
MULES: Solving for alpha.water
alpha.water BC on patch inlet
Phase-1 volume fraction = 0.666568570734  Min(alpha.water) = -2.26521049428e-28  Max(alpha.water) = 1.00002054695
alpha.water BC on patch inlet
MULES: Solving for alpha.water
alpha.water BC on patch inlet
Phase-1 volume fraction = 0.666566749171  Min(alpha.water) = -5.38730542528e-29  Max(alpha.water) = 1.00002059744
Velocity BC on patch inlet
3D_2D Absorption BC on patch outlet
"Correction Levels" 1( -0.00255252079648 )

Force on turbine.blade1: 
(64.6747719389 -0.83321498957 -18.3541940246)

Force on turbine.blade2: 
(64.7025236122 -15.4979516028 9.91106375027)

Force on turbine.blade3: 
(64.7511017606 16.3018030831 8.45032658737)

Force on turbine.hub: 
(2.31686459676 -0.000102668808985 -0.00226160506469)

Force on turbine.tower: 
(16.726018772 0.0207647890424 0)

Azimuthal angle (degrees) of turbine: 92.5992396171
Tip speed ratio of turbine: 4
Power coefficient from turbine: 0.438542225156
Rotor drag coefficient from turbine: 0.554613329402

DICPCG:  Solving for p_rgh, Initial residual = 0.000138694760621, Final residual = 4.00215404031e-06, No Iterations 2
time step continuity errors : sum local = 6.87840215405e-05, global = -4.26279593416e-05, cumulative = -0.0248510294254
DICPCG:  Solving for p_rgh, Initial residual = 9.25777146252e-06, Final residual = 2.9913891655e-07, No Iterations 5
Velocity BC on patch inlet
3D_2D Absorption BC on patch outlet
"Correction Levels" 1( -0.00255252079648 )

time step continuity errors : sum local = 5.14060008009e-06, global = -3.2145512164e-07, cumulative = -0.0248513508805
DICPCG:  Solving for p_rgh, Initial residual = 3.43990909844e-06, Final residual = 4.99374901202e-08, No Iterations 4
Velocity BC on patch inlet
3D_2D Absorption BC on patch outlet
"Correction Levels" 1( -0.00255252079648 )

time step continuity errors : sum local = 8.58163410175e-07, global = -4.98871845054e-08, cumulative = -0.0248514007677
ExecutionTime = 3.77 s  ClockTime = 4 s

Courant Number mean: 0.0330543441003 max: 0.222051813138
Interface Courant Number mean: 0.000598470183993 max: 0.110286680872
deltaT = 0.025
Time = 0.325

PIMPLE: iteration 1
alpha.water BC on patch inlet
MULES: Solving for alpha.water
alpha.water BC on patch inlet
Phase-1 volume fraction = 0.666564034387  Min(alpha.water) = -6.07698638831e-28  Max(alpha.water) = 1.00001971037
alpha.water BC on patch inlet
MULES: Solving for alpha.water
alpha.water BC on patch inlet
Phase-1 volume fraction = 0.666561343213  Min(alpha.water) = -1.2112923249e-28  Max(alpha.water) = 1.00002168156
Velocity BC on patch inlet
3D_2D Absorption BC on patch outlet
"Correction Levels" 1( -0.00254610289316 )

Force on turbine.blade1: 
(64.7059794457 -3.29004289549 -18.0755242626)

Force on turbine.blade2: 
(64.7246673613 -14.0149786288 11.8922302278)

Force on turbine.blade3: 
(64.7484615726 17.2697434094 6.178076421)

Force on turbine.hub: 
(2.30827247218 -0.000381316995782 -0.00209495888897)

Force on turbine.tower: 
(16.712172575 0.0138313341666 0)

Azimuthal angle (degrees) of turbine: 100.315842919
Tip speed ratio of turbine: 4
Power coefficient from turbine: 0.438283722948
Rotor drag coefficient from turbine: 0.554732241546

DICPCG:  Solving for p_rgh, Initial residual = 0.000169599689795, Final residual = 4.98431824095e-06, No Iterations 2
time step continuity errors : sum local = 0.000189362626278, global = -0.00011161604781, cumulative = -0.0249630168155
DICPCG:  Solving for p_rgh, Initial residual = 1.02660360994e-05, Final residual = 3.75588796426e-07, No Iterations 5
Velocity BC on patch inlet
3D_2D Absorption BC on patch outlet
"Correction Levels" 1( -0.00254610289316 )

time step continuity errors : sum local = 1.42671029032e-05, global = -9.74607984646e-07, cumulative = -0.0249639914235
DICPCG:  Solving for p_rgh, Initial residual = 3.32096366584e-06, Final residual = 6.0930195017e-08, No Iterations 4
Velocity BC on patch inlet
3D_2D Absorption BC on patch outlet
"Correction Levels" 1( -0.00254610289316 )

time step continuity errors : sum local = 2.31450324336e-06, global = -4.15445830953e-07, cumulative = -0.0249644068693
ExecutionTime = 3.87 s  ClockTime = 5 s

Courant Number mean: 0.0497642408775 max: 0.33217668737
Interface Courant Number mean: 0.00101250016536 max: 0.164323005636
deltaT = 0.025
Time = 0.35

PIMPLE: iteration 1
alpha.water BC on patch inlet
MULES: Solving for alpha.water
alpha.water BC on patch inlet
Phase-1 volume fraction = 0.666558647456  Min(alpha.water) = -4.01332626025e-28  Max(alpha.water) = 1.00002450194
alpha.water BC on patch inlet
MULES: Solving for alpha.water
alpha.water BC on patch inlet
Phase-1 volume fraction = 0.666555966622  Min(alpha.water) = -7.73801996635e-29  Max(alpha.water) = 1.00002783319
Velocity BC on patch inlet
3D_2D Absorption BC on patch outlet
"Correction Levels" 1( -0.00255136777141 )

Force on turbine.blade1: 
(64.6979417508 -5.65815439084 -17.380512436)

Force on turbine.blade2: 
(64.7263890426 -12.2284819215 13.5965813012)

Force on turbine.blade3: 
(64.721483066 17.8420061452 3.78187644655)

Force on turbine.hub: 
(2.29565926486 -0.000595795948705 -0.00183014428036)

Force on turbine.tower: 
(16.6880658995 0.00178067986313 0)

Azimuthal angle (degrees) of turbine: 108.03244622
Tip speed ratio of turbine: 4
Power coefficient from turbine: 0.436008296497
Rotor drag coefficient from turbine: 0.554602632732

DICPCG:  Solving for p_rgh, Initial residual = 0.000127338280111, Final residual = 3.9206597006e-06, No Iterations 2
time step continuity errors : sum local = 0.00014782386523, global = -7.32508242597e-05, cumulative = -0.0250376576936
DICPCG:  Solving for p_rgh, Initial residual = 1.08214466583e-05, Final residual = 3.32680938232e-07, No Iterations 5
Velocity BC on patch inlet
3D_2D Absorption BC on patch outlet
"Correction Levels" 1( -0.00255136777141 )

time step continuity errors : sum local = 1.25419695232e-05, global = -1.54587234262e-06, cumulative = -0.0250392035659
DICPCG:  Solving for p_rgh, Initial residual = 4.6325883439e-06, Final residual = 7.56500369026e-08, No Iterations 4
Velocity BC on patch inlet
3D_2D Absorption BC on patch outlet
"Correction Levels" 1( -0.00255136777141 )

time step continuity errors : sum local = 2.85199023072e-06, global = -9.46002746301e-07, cumulative = -0.0250401495687
ExecutionTime = 4.03 s  ClockTime = 5 s

Courant Number mean: 0.0498873785832 max: 0.332411139705
Interface Courant Number mean: 0.00110662282711 max: 0.163080317247
deltaT = 0.025
Time = 0.375

PIMPLE: iteration 1
alpha.water BC on patch inlet
MULES: Solving for alpha.water
alpha.water BC on patch inlet
Phase-1 volume fraction = 0.666553292152  Min(alpha.water) = -3.30041133442e-28  Max(alpha.water) = 1.00003125355
alpha.water BC on patch inlet
MULES: Solving for alpha.water
alpha.water BC on patch inlet
Phase-1 volume fraction = 0.666550630254  Min(alpha.water) = -2.15068122694e-29  Max(alpha.water) = 1.00003457523
Velocity BC on patch inlet
3D_2D Absorption BC on patch outlet
"Correction Levels" 1( -0.00258739650421 )

Force on turbine.blade1: 
(64.7017641954 -7.89641623579 -16.3716592797)

Force on turbine.blade2: 
(64.7380403564 -10.2348831784 15.0314033)

Force on turbine.blade3: 
(64.6861641828 18.069285783 1.34308129119)

Force on turbine.hub: 
(2.2833399837 -0.000757511223883 -0.00157054989094)

Force on turbine.tower: 
(16.657914505 -0.0114792400082 0)

Azimuthal angle (degrees) of turbine: 115.749049521
Tip speed ratio of turbine: 4
Power coefficient from turbine: 0.433483968691
Rotor drag coefficient from turbine: 0.554511824696

DICPCG:  Solving for p_rgh, Initial residual = 0.000129601463739, Final residual = 4.11947415741e-06, No Iterations 2
time step continuity errors : sum local = 0.000154401859537, global = -7.40860184785e-05, cumulative = -0.0251142355872
DICPCG:  Solving for p_rgh, Initial residual = 1.57545912714e-05, Final residual = 6.02199456989e-07, No Iterations 4
Velocity BC on patch inlet
3D_2D Absorption BC on patch outlet
"Correction Levels" 1( -0.00258739650421 )

time step continuity errors : sum local = 2.2568746462e-05, global = -4.86365589771e-06, cumulative = -0.0251190992431
DICPCG:  Solving for p_rgh, Initial residual = 8.07589193128e-06, Final residual = 8.01977293792e-08, No Iterations 5
Velocity BC on patch inlet
3D_2D Absorption BC on patch outlet
"Correction Levels" 1( -0.00258739650421 )

time step continuity errors : sum local = 3.00559047006e-06, global = -3.22952084556e-07, cumulative = -0.0251194221951
ExecutionTime = 4.13 s  ClockTime = 5 s

Courant Number mean: 0.0499944649972 max: 0.332746257983
Interface Courant Number mean: 0.00121603127041 max: 0.164566038289
deltaT = 0.025
Time = 0.4

PIMPLE: iteration 1
alpha.water BC on patch inlet
MULES: Solving for alpha.water
alpha.water BC on patch inlet
Phase-1 volume fraction = 0.666548026034  Min(alpha.water) = -6.46234853557e-28  Max(alpha.water) = 1.00003577259
alpha.water BC on patch inlet
MULES: Solving for alpha.water
alpha.water BC on patch inlet
Phase-1 volume fraction = 0.666545436627  Min(alpha.water) = -1.08504530593e-28  Max(alpha.water) = 1.00003831392
Velocity BC on patch inlet
3D_2D Absorption BC on patch outlet
"Correction Levels" 1( -0.00259005807696 )

Force on turbine.blade1: 
(64.6521337635 -9.9571719716 -15.0632577135)

Force on turbine.blade2: 
(64.6801930267 -8.06615684506 16.1539495792)

Force on turbine.blade3: 
(64.6008759021 17.9529442835 -1.08724697093)

Force on turbine.hub: 
(2.27134982711 -0.000887334057554 -0.00134236323577)

Force on turbine.tower: 
(16.6218273912 -0.0253585237875 0)

Azimuthal angle (degrees) of turbine: 123.465652823
Tip speed ratio of turbine: 4
Power coefficient from turbine: 0.430514909947
Rotor drag coefficient from turbine: 0.553933747546

DICPCG:  Solving for p_rgh, Initial residual = 0.000181094945098, Final residual = 5.74404544296e-06, No Iterations 2
time step continuity errors : sum local = 0.000213089869572, global = -0.000130772301473, cumulative = -0.0252501944966
DICPCG:  Solving for p_rgh, Initial residual = 2.05296343603e-05, Final residual = 8.22481680616e-07, No Iterations 4
Velocity BC on patch inlet
3D_2D Absorption BC on patch outlet
"Correction Levels" 1( -0.00259005807696 )

time step continuity errors : sum local = 3.05073789706e-05, global = -5.2352073125e-06, cumulative = -0.0252554297039
DICPCG:  Solving for p_rgh, Initial residual = 1.04693513799e-05, Final residual = 7.84546133251e-08, No Iterations 5
Velocity BC on patch inlet
3D_2D Absorption BC on patch outlet
"Correction Levels" 1( -0.00259005807696 )

time step continuity errors : sum local = 2.91003410761e-06, global = -3.09385416447e-07, cumulative = -0.0252557390893
ExecutionTime = 4.29 s  ClockTime = 5 s

Courant Number mean: 0.0501371418666 max: 0.333035542636
Interface Courant Number mean: 0.00137811265636 max: 0.166466661709
deltaT = 0.025
Time = 0.425

PIMPLE: iteration 1
alpha.water BC on patch inlet
MULES: Solving for alpha.water
alpha.water BC on patch inlet
Phase-1 volume fraction = 0.666542855859  Min(alpha.water) = -3.16042318563e-29  Max(alpha.water) = 1.00003899562
alpha.water BC on patch inlet
MULES: Solving for alpha.water
alpha.water BC on patch inlet
Phase-1 volume fraction = 0.666540301286  Min(alpha.water) = -1.61558713389e-28  Max(alpha.water) = 1.00004109098
Velocity BC on patch inlet
3D_2D Absorption BC on patch outlet
"Correction Levels" 1( -0.00255978023718 )

Force on turbine.blade1: 
(64.5759719191 -11.8120973851 -13.5012843694)

Force on turbine.blade2: 
(64.5929290121 -5.78427649737 16.9739679347)

Force on turbine.blade3: 
(64.4956176956 17.5234611784 -3.46409950539)

Force on turbine.hub: 
(2.25973353412 -0.000983549810122 -0.001124202184)

Force on turbine.tower: 
(16.5845819952 -0.0389964380953 0)

Azimuthal angle (degrees) of turbine: 131.182256124
Tip speed ratio of turbine: 4
Power coefficient from turbine: 0.427760973562
Rotor drag coefficient from turbine: 0.553142390638

DICPCG:  Solving for p_rgh, Initial residual = 0.00026549471214, Final residual = 8.29025990467e-06, No Iterations 2
time step continuity errors : sum local = 0.000302605623253, global = -0.000206093602956, cumulative = -0.0254618326923
DICPCG:  Solving for p_rgh, Initial residual = 2.45600167613e-05, Final residual = 1.06700369177e-06, No Iterations 4
Velocity BC on patch inlet
3D_2D Absorption BC on patch outlet
"Correction Levels" 1( -0.00255978023718 )

time step continuity errors : sum local = 3.89382223221e-05, global = -5.67551163966e-06, cumulative = -0.0254675082039
DICPCG:  Solving for p_rgh, Initial residual = 1.18043876965e-05, Final residual = 9.36649419537e-08, No Iterations 5
Velocity BC on patch inlet
3D_2D Absorption BC on patch outlet
"Correction Levels" 1( -0.00255978023718 )

time step continuity errors : sum local = 3.41813379058e-06, global = -6.26940557571e-07, cumulative = -0.0254681351445
ExecutionTime = 4.39 s  ClockTime = 5 s

Courant Number mean: 0.050319323489 max: 0.333274133271
Interface Courant Number mean: 0.00167688459192 max: 0.167330703623
deltaT = 0.025
Time = 0.45

PIMPLE: iteration 1
alpha.water BC on patch inlet
MULES: Solving for alpha.water
alpha.water BC on patch inlet
Phase-1 volume fraction = 0.666537718367  Min(alpha.water) = -2.01948391737e-29  Max(alpha.water) = 1.00004279553
alpha.water BC on patch inlet
MULES: Solving for alpha.water
alpha.water BC on patch inlet
Phase-1 volume fraction = 0.666535176019  Min(alpha.water) = -6.47538597388e-29  Max(alpha.water) = 1.0000444846
Velocity BC on patch inlet
3D_2D Absorption BC on patch outlet
"Correction Levels" 1( -0.00252861840466 )

Force on turbine.blade1: 
(64.478395132 -13.4409367917 -11.7257476822)

Force on turbine.blade2: 
(64.4901819868 -3.4339056075 17.5009190502)

Force on turbine.blade3: 
(64.3648401268 16.8015132389 -5.75207006183)

Force on turbine.hub: 
(2.24852510348 -0.00104248376222 -0.000909453094525)

Force on turbine.tower: 
(16.5507833554 -0.0528464856811 0)

Azimuthal angle (degrees) of turbine: 138.898859426
Tip speed ratio of turbine: 4
Power coefficient from turbine: 0.425507548732
Rotor drag coefficient from turbine: 0.552175965779

DICPCG:  Solving for p_rgh, Initial residual = 0.00034046505995, Final residual = 1.04411814965e-05, No Iterations 2
time step continuity errors : sum local = 0.000373517185632, global = -0.000266733472945, cumulative = -0.0257348686174
DICPCG:  Solving for p_rgh, Initial residual = 2.6358887529e-05, Final residual = 1.14842653272e-06, No Iterations 4
Velocity BC on patch inlet
3D_2D Absorption BC on patch outlet
"Correction Levels" 1( -0.00252861840466 )

time step continuity errors : sum local = 4.10713670585e-05, global = -4.16018087234e-06, cumulative = -0.0257390287983
DICPCG:  Solving for p_rgh, Initial residual = 1.16933175157e-05, Final residual = 9.66656057231e-08, No Iterations 5
Velocity BC on patch inlet
3D_2D Absorption BC on patch outlet
"Correction Levels" 1( -0.00252861840466 )

time step continuity errors : sum local = 3.45709914744e-06, global = -7.26463592505e-07, cumulative = -0.0257397552619
ExecutionTime = 4.55 s  ClockTime = 5 s

Courant Number mean: 0.050502270603 max: 0.333813319379
Interface Courant Number mean: 0.0019385234501 max: 0.167608254738
deltaT = 0.025
Time = 0.475

PIMPLE: iteration 1
alpha.water BC on patch inlet
MULES: Solving for alpha.water
alpha.water BC on patch inlet
Phase-1 volume fraction = 0.666532626162  Min(alpha.water) = -6.0584517521e-29  Max(alpha.water) = 1.00004563721
alpha.water BC on patch inlet
MULES: Solving for alpha.water
alpha.water BC on patch inlet
Phase-1 volume fraction = 0.666530123041  Min(alpha.water) = -4.03896783473e-29  Max(alpha.water) = 1.00004706431
Velocity BC on patch inlet
3D_2D Absorption BC on patch outlet
"Correction Levels" 1( -0.00249329896704 )

Force on turbine.blade1: 
(64.3834247025 -14.8318913329 -9.77408834208)

Force on turbine.blade2: 
(64.3423311856 -1.04667331382 17.6981929495)

Force on turbine.blade3: 
(64.2052075228 15.7970152641 -7.91588898907)

Force on turbine.hub: 
(2.23775200118 -0.00105548477908 -0.00069555535723)

Force on turbine.tower: 
(16.5214480909 -0.0678813842847 0)

Azimuthal angle (degrees) of turbine: 146.615462727
Tip speed ratio of turbine: 4
Power coefficient from turbine: 0.423537817732
Rotor drag coefficient from turbine: 0.551009324421

DICPCG:  Solving for p_rgh, Initial residual = 0.000368925086289, Final residual = 1.11377028225e-05, No Iterations 2
time step continuity errors : sum local = 0.000390598391274, global = -0.000281732422366, cumulative = -0.0260214876843
DICPCG:  Solving for p_rgh, Initial residual = 2.35986877616e-05, Final residual = 1.05719575749e-06, No Iterations 4
Velocity BC on patch inlet
3D_2D Absorption BC on patch outlet
"Correction Levels" 1( -0.00249329896704 )

time step continuity errors : sum local = 3.70642881211e-05, global = -3.92383487161e-06, cumulative = -0.0260254115191
DICPCG:  Solving for p_rgh, Initial residual = 9.47135616584e-06, Final residual = 8.96499091662e-08, No Iterations 5
Velocity BC on patch inlet
3D_2D Absorption BC on patch outlet
"Correction Levels" 1( -0.00249329896704 )

time step continuity errors : sum local = 3.14307683725e-06, global = -6.58207016165e-07, cumulative = -0.0260260697262
ExecutionTime = 4.65 s  ClockTime = 5 s

Courant Number mean: 0.0506415210401 max: 0.33431932066
Interface Courant Number mean: 0.00226519685966 max: 0.16733895367
deltaT = 0.025
Time = 0.5

PIMPLE: iteration 1
alpha.water BC on patch inlet
MULES: Solving for alpha.water
alpha.water BC on patch inlet
Phase-1 volume fraction = 0.666527609062  Min(alpha.water) = -8.07793566946e-29  Max(alpha.water) = 1.00004812758
alpha.water BC on patch inlet
MULES: Solving for alpha.water
alpha.water BC on patch inlet
Phase-1 volume fraction = 0.666525136078  Min(alpha.water) = -3.23117426779e-28  Max(alpha.water) = 1.00005046256
Velocity BC on patch inlet
3D_2D Absorption BC on patch outlet
"Correction Levels" 1( -0.00244217940102 )

Force on turbine.blade1: 
(64.2842565024 -15.9553314732 -7.66778766864)

Force on turbine.blade2: 
(64.1907133988 1.33098622194 17.5700275714)

Force on turbine.blade3: 
(64.0982499233 14.5428134562 -9.93236563091)

Force on turbine.hub: 
(2.22744497485 -0.00100164369404 -0.00048136832371)

Force on turbine.tower: 
(16.4935309063 -0.0841454465866 0)

Azimuthal angle (degrees) of turbine: 154.332066029
Tip speed ratio of turbine: 4
Power coefficient from turbine: 0.421868053182
Rotor drag coefficient from turbine: 0.549970226945

DICPCG:  Solving for p_rgh, Initial residual = 0.000331007619118, Final residual = 9.91172122536e-06, No Iterations 2
time step continuity errors : sum local = 0.000342190528836, global = -0.000241406895188, cumulative = -0.0262674766213
DICPCG:  Solving for p_rgh, Initial residual = 1.74905994804e-05, Final residual = 5.29906002005e-07, No Iterations 5
Velocity BC on patch inlet
3D_2D Absorption BC on patch outlet
"Correction Levels" 1( -0.00244217940102 )

time step continuity errors : sum local = 1.82892429304e-05, global = 3.10611020955e-07, cumulative = -0.0262671660103
DICPCG:  Solving for p_rgh, Initial residual = 6.15058274988e-06, Final residual = 9.61908585399e-08, No Iterations 4
Velocity BC on patch inlet
3D_2D Absorption BC on patch outlet
"Correction Levels" 1( -0.00244217940102 )

time step continuity errors : sum local = 3.3199833334e-06, global = -1.14553761781e-06, cumulative = -0.0262683115479
ExecutionTime = 4.81 s  ClockTime = 5 s

Courant Number mean: 0.0507162069432 max: 0.334787562858
Interface Courant Number mean: 0.00255770203214 max: 0.16673035034
deltaT = 0.025
Time = 0.525

PIMPLE: iteration 1
alpha.water BC on patch inlet
MULES: Solving for alpha.water
alpha.water BC on patch inlet
Phase-1 volume fraction = 0.666522610333  Min(alpha.water) = -2.42338070084e-28  Max(alpha.water) = 1.00005119187
alpha.water BC on patch inlet
MULES: Solving for alpha.water
alpha.water BC on patch inlet
Phase-1 volume fraction = 0.666520111645  Min(alpha.water) = -2.42338070084e-28  Max(alpha.water) = 1.00005316617
Velocity BC on patch inlet
3D_2D Absorption BC on patch outlet
"Correction Levels" 1( -0.00238232195734 )

Force on turbine.blade1: 
(64.2027246075 -16.8012152877 -5.44327179671)

Force on turbine.blade2: 
(64.1449001661 3.66639344337 17.1772650624)

Force on turbine.blade3: 
(64.0174273454 13.0460894249 -11.7668332922)

Force on turbine.hub: 
(2.21757219867 -0.000868868581026 -0.000281496770391)

Force on turbine.tower: 
(16.4655758153 -0.101262037357 0)

Azimuthal angle (degrees) of turbine: 162.04866933
Tip speed ratio of turbine: 4
Power coefficient from turbine: 0.420859258151
Rotor drag coefficient from turbine: 0.549354644995

DICPCG:  Solving for p_rgh, Initial residual = 0.000241111984345, Final residual = 7.31694550263e-06, No Iterations 2
time step continuity errors : sum local = 0.000250056088131, global = -0.000162659258088, cumulative = -0.026430970806
DICPCG:  Solving for p_rgh, Initial residual = 1.12856173652e-05, Final residual = 3.96657733548e-07, No Iterations 5
Velocity BC on patch inlet
3D_2D Absorption BC on patch outlet
"Correction Levels" 1( -0.00238232195734 )

time step continuity errors : sum local = 1.35528951175e-05, global = -6.30159549402e-07, cumulative = -0.0264316009656
DICPCG:  Solving for p_rgh, Initial residual = 3.52121091454e-06, Final residual = 6.37426751069e-08, No Iterations 4
Velocity BC on patch inlet
3D_2D Absorption BC on patch outlet
"Correction Levels" 1( -0.00238232195734 )

time step continuity errors : sum local = 2.17796181611e-06, global = -7.85830647542e-07, cumulative = -0.0264323867962
ExecutionTime = 4.91 s  ClockTime = 6 s

Courant Number mean: 0.0507325092794 max: 0.335178081208
Interface Courant Number mean: 0.00273360602978 max: 0.165788591376
deltaT = 0.025
Time = 0.55

PIMPLE: iteration 1
alpha.water BC on patch inlet
MULES: Solving for alpha.water
alpha.water BC on patch inlet
Phase-1 volume fraction = 0.666517522258  Min(alpha.water) = -1.61558713389e-28  Max(alpha.water) = 1.0000548951
alpha.water BC on patch inlet
MULES: Solving for alpha.water
alpha.water BC on patch inlet
Phase-1 volume fraction = 0.666514951931  Min(alpha.water) = -1.42220394393e-28  Max(alpha.water) = 1.00005700847
Velocity BC on patch inlet
3D_2D Absorption BC on patch outlet
"Correction Levels" 1( -0.00236163826262 )

Force on turbine.blade1: 
(64.139965104 -17.3493906316 -3.13250528995)

Force on turbine.blade2: 
(64.1310748535 5.93655589754 16.5208297999)

Force on turbine.blade3: 
(63.9611701767 11.3307420652 -13.3916500246)

Force on turbine.hub: 
(2.20810369778 -0.000659807248244 -0.00011913096773)

Force on turbine.tower: 
(16.4377417778 -0.119725122882 0)

Azimuthal angle (degrees) of turbine: 169.765272631
Tip speed ratio of turbine: 4
Power coefficient from turbine: 0.420400904207
Rotor drag coefficient from turbine: 0.548952867463

DICPCG:  Solving for p_rgh, Initial residual = 0.000148041231354, Final residual = 4.87028925509e-06, No Iterations 2
time step continuity errors : sum local = 0.000165600487761, global = -7.67308287729e-05, cumulative = -0.026509117625
DICPCG:  Solving for p_rgh, Initial residual = 1.09561448455e-05, Final residual = 3.14504918388e-07, No Iterations 5
Velocity BC on patch inlet
3D_2D Absorption BC on patch outlet
"Correction Levels" 1( -0.00236163826262 )

time step continuity errors : sum local = 1.06924669453e-05, global = -1.87619623616e-06, cumulative = -0.0265109938212
DICPCG:  Solving for p_rgh, Initial residual = 4.47292219383e-06, Final residual = 9.17219232349e-08, No Iterations 3
Velocity BC on patch inlet
3D_2D Absorption BC on patch outlet
"Correction Levels" 1( -0.00236163826262 )

time step continuity errors : sum local = 3.1183623662e-06, global = 7.14357307485e-08, cumulative = -0.0265109223855
ExecutionTime = 5.06 s  ClockTime = 6 s

Courant Number mean: 0.050724708964 max: 0.335464811323
Interface Courant Number mean: 0.00285345103104 max: 0.165037391313
deltaT = 0.025
Time = 0.575

PIMPLE: iteration 1
alpha.water BC on patch inlet
MULES: Solving for alpha.water
alpha.water BC on patch inlet
Phase-1 volume fraction = 0.666512347774  Min(alpha.water) = -1.28144386862e-28  Max(alpha.water) = 1.00006106091
alpha.water BC on patch inlet
MULES: Solving for alpha.water
alpha.water BC on patch inlet
Phase-1 volume fraction = 0.666509762976  Min(alpha.water) = -8.07793566946e-29  Max(alpha.water) = 1.00006602438
Velocity BC on patch inlet
3D_2D Absorption BC on patch outlet
"Correction Levels" 1( -0.00237937840896 )

Force on turbine.blade1: 
(64.0997280603 -17.5909909704 -0.773614401067)

Force on turbine.blade2: 
(64.0968853983 8.09816820486 15.5684582692)

Force on turbine.blade3: 
(63.9569582222 9.43459503017 -14.799015191)

Force on turbine.hub: 
(2.19902751727 -0.000395137057939 -1.73772881205e-05)

Force on turbine.tower: 
(16.4136467719 -0.13926680614 0)

Azimuthal angle (degrees) of turbine: 177.481875933
Tip speed ratio of turbine: 4
Power coefficient from turbine: 0.420255168411
Rotor drag coefficient from turbine: 0.548705227461

DICPCG:  Solving for p_rgh, Initial residual = 0.000114204335091, Final residual = 3.81697254531e-06, No Iterations 2
time step continuity errors : sum local = 0.000129331886038, global = -3.6520566947e-05, cumulative = -0.0265474429525
DICPCG:  Solving for p_rgh, Initial residual = 1.51917555431e-05, Final residual = 5.57274926983e-07, No Iterations 4
Velocity BC on patch inlet
3D_2D Absorption BC on patch outlet
"Correction Levels" 1( -0.00237937840896 )

time step continuity errors : sum local = 1.88803871776e-05, global = -7.65339888583e-06, cumulative = -0.0265550963513
DICPCG:  Solving for p_rgh, Initial residual = 7.55997693201e-06, Final residual = 7.93549652619e-08, No Iterations 4
Velocity BC on patch inlet
3D_2D Absorption BC on patch outlet
"Correction Levels" 1( -0.00237937840896 )

time step continuity errors : sum local = 2.68855698801e-06, global = -2.65154098711e-07, cumulative = -0.0265553615054
ExecutionTime = 5.17 s  ClockTime = 6 s

Courant Number mean: 0.0507369315604 max: 0.335658151698
Interface Courant Number mean: 0.0030044484488 max: 0.164731223418
deltaT = 0.025
Time = 0.6

PIMPLE: iteration 1
alpha.water BC on patch inlet
MULES: Solving for alpha.water
alpha.water BC on patch inlet
Phase-1 volume fraction = 0.666507212537  Min(alpha.water) = -1.29246970711e-27  Max(alpha.water) = 1.00006712457
alpha.water BC on patch inlet
MULES: Solving for alpha.water
alpha.water BC on patch inlet
Phase-1 volume fraction = 0.66650468736  Min(alpha.water) = -3.23117426779e-28  Max(alpha.water) = 1.00006891362
Velocity BC on patch inlet
3D_2D Absorption BC on patch outlet
"Correction Levels" 1( -0.00236728652104 )

Force on turbine.blade1: 
(64.0485858152 -17.5037367219 1.59249639306)

Force on turbine.blade2: 
(64.050947852 10.0892490118 14.303228173)

Force on turbine.blade3: 
(63.8782490478 7.34695846334 -15.8991666242)

Force on turbine.hub: 
(2.19030887989 -9.33385054411e-05 8.49197149216e-06)

Force on turbine.tower: 
(16.395759027 -0.160334198873 0)

Azimuthal angle (degrees) of turbine: 185.198479234
Tip speed ratio of turbine: 4
Power coefficient from turbine: 0.419472179796
Rotor drag coefficient from turbine: 0.548184317081

DICPCG:  Solving for p_rgh, Initial residual = 0.000192770774981, Final residual = 4.54383139011e-06, No Iterations 2
time step continuity errors : sum local = 0.000152997496836, global = -8.66105528708e-05, cumulative = -0.0266419720583
DICPCG:  Solving for p_rgh, Initial residual = 2.02640994688e-05, Final residual = 5.58769419373e-07, No Iterations 4
Velocity BC on patch inlet
3D_2D Absorption BC on patch outlet
"Correction Levels" 1( -0.00236728652104 )

time step continuity errors : sum local = 1.88113296405e-05, global = -4.7793121693e-06, cumulative = -0.0266467513705
DICPCG:  Solving for p_rgh, Initial residual = 1.01713862026e-05, Final residual = 8.27886398757e-08, No Iterations 4
Velocity BC on patch inlet
3D_2D Absorption BC on patch outlet
"Correction Levels" 1( -0.00236728652104 )

time step continuity errors : sum local = 2.78715604883e-06, global = 4.34105908036e-07, cumulative = -0.0266463172646
ExecutionTime = 5.32 s  ClockTime = 6 s

Courant Number mean: 0.0507878215185 max: 0.335772831083
Interface Courant Number mean: 0.00328455027463 max: 0.165871558767
deltaT = 0.025
Time = 0.625

PIMPLE: iteration 1
alpha.water BC on patch inlet
MULES: Solving for alpha.water
alpha.water BC on patch inlet
Phase-1 volume fraction = 0.666502153946  Min(alpha.water) = -3.02922587605e-28  Max(alpha.water) = 1.0000764443
alpha.water BC on patch inlet
MULES: Solving for alpha.water
alpha.water BC on patch inlet
Phase-1 volume fraction = 0.666499650544  Min(alpha.water) = -2.58493941423e-27  Max(alpha.water) = 1.00008512127
Velocity BC on patch inlet
3D_2D Absorption BC on patch outlet
"Correction Levels" 1( -0.00232437078239 )

Force on turbine.blade1: 
(64.0252960853 -17.1045166617 3.92219633304)

Force on turbine.blade2: 
(64.0215674618 11.8922561115 12.7908378294)

Force on turbine.blade3: 
(63.7552754406 5.1197504125 -16.657610024)

Force on turbine.hub: 
(2.1819312912 0.000205208211961 -4.70558106015e-05)

Force on turbine.tower: 
(16.3811205944 -0.183155262901 0)

Azimuthal angle (degrees) of turbine: 192.915082536
Tip speed ratio of turbine: 4
Power coefficient from turbine: 0.418398657795
Rotor drag coefficient from turbine: 0.547664779609

DICPCG:  Solving for p_rgh, Initial residual = 0.000312084900282, Final residual = 7.22629276043e-06, No Iterations 2
time step continuity errors : sum local = 0.000240913784469, global = -0.000167155490746, cumulative = -0.0268134727553
DICPCG:  Solving for p_rgh, Initial residual = 2.48123972945e-05, Final residual = 6.83491117898e-07, No Iterations 4
Velocity BC on patch inlet
3D_2D Absorption BC on patch outlet
"Correction Levels" 1( -0.00232437078239 )

time step continuity errors : sum local = 2.27804592644e-05, global = -4.00540591509e-06, cumulative = -0.0268174781612
DICPCG:  Solving for p_rgh, Initial residual = 1.15268763404e-05, Final residual = 9.4503115847e-08, No Iterations 4
Velocity BC on patch inlet
3D_2D Absorption BC on patch outlet
"Correction Levels" 1( -0.00232437078239 )

time step continuity errors : sum local = 3.14978547264e-06, global = 3.66402563392e-07, cumulative = -0.0268171117587
ExecutionTime = 5.43 s  ClockTime = 6 s

Courant Number mean: 0.0508584988752 max: 0.336287638374
Interface Courant Number mean: 0.00357655802392 max: 0.166947886595
deltaT = 0.025
Time = 0.65

PIMPLE: iteration 1
alpha.water BC on patch inlet
MULES: Solving for alpha.water
alpha.water BC on patch inlet
Phase-1 volume fraction = 0.666497091235  Min(alpha.water) = -3.23117426779e-28  Max(alpha.water) = 1.00008988399
alpha.water BC on patch inlet
MULES: Solving for alpha.water
alpha.water BC on patch inlet
Phase-1 volume fraction = 0.666494567246  Min(alpha.water) = -1.29246970711e-27  Max(alpha.water) = 1.00009654222
Velocity BC on patch inlet
3D_2D Absorption BC on patch outlet
"Correction Levels" 1( -0.00228580163591 )

Force on turbine.blade1: 
(63.9819789335 -16.3884474033 6.17035819418)

Force on turbine.blade2: 
(63.9369383961 13.457502185 11.0416588632)

Force on turbine.blade3: 
(63.6915518029 2.821662934 -17.1029776567)

Force on turbine.hub: 
(2.17383559635 0.000464862770908 -0.000175023889515)

Force on turbine.tower: 
(16.3612407333 -0.207948966261 0)

Azimuthal angle (degrees) of turbine: 200.631685837
Tip speed ratio of turbine: 4
Power coefficient from turbine: 0.417139637169
Rotor drag coefficient from turbine: 0.547100792289

DICPCG:  Solving for p_rgh, Initial residual = 0.000395079837384, Final residual = 9.47003196227e-06, No Iterations 2
time step continuity errors : sum local = 0.000312034486288, global = -0.000224983653956, cumulative = -0.0270420954126
DICPCG:  Solving for p_rgh, Initial residual = 2.63366685639e-05, Final residual = 7.84502244501e-07, No Iterations 4
Velocity BC on patch inlet
3D_2D Absorption BC on patch outlet
"Correction Levels" 1( -0.00228580163591 )

time step continuity errors : sum local = 2.5840572792e-05, global = -4.6760991959e-06, cumulative = -0.0270467715118
DICPCG:  Solving for p_rgh, Initial residual = 1.13342949643e-05, Final residual = 7.30170504791e-08, No Iterations 5
Velocity BC on patch inlet
3D_2D Absorption BC on patch outlet
"Correction Levels" 1( -0.00228580163591 )

time step continuity errors : sum local = 2.40513899954e-06, global = -7.20312357618e-07, cumulative = -0.0270474918242
ExecutionTime = 5.58 s  ClockTime = 6 s

Courant Number mean: 0.0509220090127 max: 0.336714110811
Interface Courant Number mean: 0.00393118054417 max: 0.168625404772
deltaT = 0.025
Time = 0.675

PIMPLE: iteration 1
alpha.water BC on patch inlet
MULES: Solving for alpha.water
alpha.water BC on patch inlet
Phase-1 volume fraction = 0.666492001955  Min(alpha.water) = -2.58493941423e-27  Max(alpha.water) = 1.00009598188
alpha.water BC on patch inlet
MULES: Solving for alpha.water
alpha.water BC on patch inlet
Phase-1 volume fraction = 0.666489469694  Min(alpha.water) = -1.29246970711e-27  Max(alpha.water) = 1.00009502269
Velocity BC on patch inlet
3D_2D Absorption BC on patch outlet
"Correction Levels" 1( -0.00224806424107 )

Force on turbine.blade1: 
(63.9310751357 -15.37015729 8.29269431218)

Force on turbine.blade2: 
(63.8386997093 14.7736679389 9.10721142443)

Force on turbine.blade3: 
(63.8612402208 0.501424147936 -17.388956617)

Force on turbine.hub: 
(2.1660657571 0.000660780146327 -0.00035651214608)

Force on turbine.tower: 
(16.3243832103 -0.234020696805 0)

Azimuthal angle (degrees) of turbine: 208.348289138
Tip speed ratio of turbine: 4
Power coefficient from turbine: 0.416939192379
Rotor drag coefficient from turbine: 0.547136862347

DICPCG:  Solving for p_rgh, Initial residual = 0.00041184987371, Final residual = 1.02134872161e-05, No Iterations 2
time step continuity errors : sum local = 0.000332766330051, global = -0.000239879211906, cumulative = -0.0272873710361
DICPCG:  Solving for p_rgh, Initial residual = 2.32119401314e-05, Final residual = 8.04159468512e-07, No Iterations 4
Velocity BC on patch inlet
3D_2D Absorption BC on patch outlet
"Correction Levels" 1( -0.00224806424107 )

time step continuity errors : sum local = 2.61914382173e-05, global = -5.33029918898e-06, cumulative = -0.0272927013353
DICPCG:  Solving for p_rgh, Initial residual = 9.13460057873e-06, Final residual = 9.7443296822e-08, No Iterations 4
Velocity BC on patch inlet
3D_2D Absorption BC on patch outlet
"Correction Levels" 1( -0.00224806424107 )

time step continuity errors : sum local = 3.17377804435e-06, global = -3.73901911335e-07, cumulative = -0.0272930752372
[...]
Velocity BC on patch inlet
3D_2D Absorption BC on patch outlet
"Correction Levels" 1( -0.00537873954903 )

time step continuity errors : sum local = 1.88894612634e-06, global = 2.57602553437e-07, cumulative = -0.0394737736218
ExecutionTime = 76.83 s  ClockTime = 84 s

Courant Number mean: 0.0523665574029 max: 0.33619052928
Interface Courant Number mean: 0.00901924333331 max: 0.257897610765
deltaT = 0.025
Time = 14.8

PIMPLE: iteration 1
alpha.water BC on patch inlet
MULES: Solving for alpha.water
alpha.water BC on patch inlet
Phase-1 volume fraction = 0.664847590072  Min(alpha.water) = -8.28741628674e-23  Max(alpha.water) = 1.00004329956
alpha.water BC on patch inlet
MULES: Solving for alpha.water
alpha.water BC on patch inlet
Phase-1 volume fraction = 0.664842931951  Min(alpha.water) = -8.2817981505e-23  Max(alpha.water) = 1.00004927868
Velocity BC on patch inlet
3D_2D Absorption BC on patch outlet
"Correction Levels" 1( -0.00542315838911 )

Force on turbine.blade1: 
(60.7372838551 -5.63631473333 14.1126141029)

Force on turbine.blade2: 
(60.5509302239 15.0331324213 -2.17411636758)

Force on turbine.blade3: 
(60.6518893404 -9.37087401373 -11.8957963693)

Force on turbine.hub: 
(1.970629006 0.00507564495169 -0.0127087683913)

Force on turbine.tower: 
(12.8522061729 -0.442226805201 0)

Azimuthal angle (degrees) of turbine: 4568.22915444
Tip speed ratio of turbine: 4
Power coefficient from turbine: 0.370904953289
Rotor drag coefficient from turbine: 0.519225267295

DICPCG:  Solving for p_rgh, Initial residual = 7.0554245098e-05, Final residual = 2.15393097925e-06, No Iterations 2
time step continuity errors : sum local = 5.87273660928e-05, global = -3.51181523895e-06, cumulative = -0.039477285437
DICPCG:  Solving for p_rgh, Initial residual = 2.60169922152e-06, Final residual = 8.91502335775e-08, No Iterations 5
Velocity BC on patch inlet
3D_2D Absorption BC on patch outlet
"Correction Levels" 1( -0.00542315838911 )

time step continuity errors : sum local = 2.43057378532e-06, global = 2.90058173935e-07, cumulative = -0.0394769953788
DICPCG:  Solving for p_rgh, Initial residual = 3.26540560123e-07, Final residual = 7.10501814937e-08, No Iterations 1
Velocity BC on patch inlet
3D_2D Absorption BC on patch outlet
"Correction Levels" 1( -0.00542315838911 )

time step continuity errors : sum local = 1.93705953014e-06, global = 2.58493738944e-07, cumulative = -0.0394767368851
ExecutionTime = 76.98 s  ClockTime = 84 s

Courant Number mean: 0.0523656593517 max: 0.335496221252
Interface Courant Number mean: 0.0090246574986 max: 0.258052362091
deltaT = 0.025
Time = 14.825

PIMPLE: iteration 1
alpha.water BC on patch inlet
MULES: Solving for alpha.water
alpha.water BC on patch inlet
Phase-1 volume fraction = 0.664838323223  Min(alpha.water) = -8.27599486409e-23  Max(alpha.water) = 1.00004815539
alpha.water BC on patch inlet
MULES: Solving for alpha.water
alpha.water BC on patch inlet
Phase-1 volume fraction = 0.664833719009  Min(alpha.water) = -8.2701956442e-23  Max(alpha.water) = 1.00005115328
Velocity BC on patch inlet
3D_2D Absorption BC on patch outlet
"Correction Levels" 1( -0.00546817371966 )

Force on turbine.blade1: 
(60.7605439745 -3.69177458259 14.7474077125)

Force on turbine.blade2: 
(60.4796648954 14.6013942608 -4.1719266727)

Force on turbine.blade3: 
(60.7455343065 -10.910680005 -10.5563012344)

Force on turbine.hub: 
(1.97038330778 0.00348561593118 -0.0139238726841)

Force on turbine.tower: 
(12.8387544799 -0.440094308602 0)

Azimuthal angle (degrees) of turbine: 4575.94575775
Tip speed ratio of turbine: 4
Power coefficient from turbine: 0.371130564758
Rotor drag coefficient from turbine: 0.519353425896

DICPCG:  Solving for p_rgh, Initial residual = 7.06232488032e-05, Final residual = 2.15868925311e-06, No Iterations 2
time step continuity errors : sum local = 5.88595074968e-05, global = -3.56350224737e-06, cumulative = -0.0394803003873
DICPCG:  Solving for p_rgh, Initial residual = 2.6039373931e-06, Final residual = 9.16997650781e-08, No Iterations 5
Velocity BC on patch inlet
3D_2D Absorption BC on patch outlet
"Correction Levels" 1( -0.00546817371966 )

time step continuity errors : sum local = 2.50018748303e-06, global = 2.89697236418e-07, cumulative = -0.0394800106901
DICPCG:  Solving for p_rgh, Initial residual = 3.28365418783e-07, Final residual = 7.27890508527e-08, No Iterations 1
Velocity BC on patch inlet
3D_2D Absorption BC on patch outlet
"Correction Levels" 1( -0.00546817371966 )

time step continuity errors : sum local = 1.98454791931e-06, global = 2.60546776722e-07, cumulative = -0.0394797501433
ExecutionTime = 77.09 s  ClockTime = 84 s

Courant Number mean: 0.0523642534432 max: 0.33526478882
Interface Courant Number mean: 0.00903026589568 max: 0.258202363063
deltaT = 0.025
Time = 14.85

PIMPLE: iteration 1
alpha.water BC on patch inlet
MULES: Solving for alpha.water
alpha.water BC on patch inlet
Phase-1 volume fraction = 0.664829166745  Min(alpha.water) = -8.26421535908e-23  Max(alpha.water) = 1.00004831427
alpha.water BC on patch inlet
MULES: Solving for alpha.water
alpha.water BC on patch inlet
Phase-1 volume fraction = 0.664824619121  Min(alpha.water) = -8.25823939838e-23  Max(alpha.water) = 1.00004459089
Velocity BC on patch inlet
3D_2D Absorption BC on patch outlet
"Correction Levels" 1( -0.00551381137874 )

Force on turbine.blade1: 
(60.7427730003 -1.67565111602 15.0869844578)

Force on turbine.blade2: 
(60.4334263355 13.9158605551 -6.09773564428)

Force on turbine.blade3: 
(60.7075145145 -12.2024393097 -8.97593027861)

Force on turbine.hub: 
(1.97014767349 0.00163517217874 -0.014722526074)

Force on turbine.tower: 
(12.8280929372 -0.436404501537 0)

Azimuthal angle (degrees) of turbine: 4583.66236105
Tip speed ratio of turbine: 4
Power coefficient from turbine: 0.370728414055
Rotor drag coefficient from turbine: 0.519064706741

DICPCG:  Solving for p_rgh, Initial residual = 7.06776709641e-05, Final residual = 2.16785175348e-06, No Iterations 2
time step continuity errors : sum local = 5.91117150742e-05, global = -3.78042920779e-06, cumulative = -0.0394835305725
DICPCG:  Solving for p_rgh, Initial residual = 2.60952320999e-06, Final residual = 9.33726028472e-08, No Iterations 5
Velocity BC on patch inlet
3D_2D Absorption BC on patch outlet
"Correction Levels" 1( -0.00551381137874 )

time step continuity errors : sum local = 2.54590142888e-06, global = 2.91604720187e-07, cumulative = -0.0394832389678
DICPCG:  Solving for p_rgh, Initial residual = 3.30356599611e-07, Final residual = 7.40322064821e-08, No Iterations 1
Velocity BC on patch inlet
3D_2D Absorption BC on patch outlet
"Correction Levels" 1( -0.00551381137874 )

time step continuity errors : sum local = 2.0185237876e-06, global = 2.63580868483e-07, cumulative = -0.0394829753869
ExecutionTime = 77.23 s  ClockTime = 84 s

Courant Number mean: 0.0523627652228 max: 0.335396596564
Interface Courant Number mean: 0.00903603200826 max: 0.258354285816
deltaT = 0.025
Time = 14.875

PIMPLE: iteration 1
alpha.water BC on patch inlet
MULES: Solving for alpha.water
alpha.water BC on patch inlet
Phase-1 volume fraction = 0.664820126345  Min(alpha.water) = -8.25209204308e-23  Max(alpha.water) = 1.00003916089
alpha.water BC on patch inlet
MULES: Solving for alpha.water
alpha.water BC on patch inlet
Phase-1 volume fraction = 0.664815638321  Min(alpha.water) = -8.24594926382e-23  Max(alpha.water) = 1.0000405101
Velocity BC on patch inlet
3D_2D Absorption BC on patch outlet
"Correction Levels" 1( -0.00555992747557 )

Force on turbine.blade1: 
(60.7226399749 0.364689639122 15.1498786508)

Force on turbine.blade2: 
(60.4103014724 12.9882854157 -7.92153949128)

Force on turbine.blade3: 
(60.7474551755 -13.3210995123 -7.26924505551)

Force on turbine.hub: 
(1.96999511921 -0.000362132166388 -0.0150436365276)

Force on turbine.tower: 
(12.8209144368 -0.431972368244 0)

Azimuthal angle (degrees) of turbine: 4591.37896435
Tip speed ratio of turbine: 4
Power coefficient from turbine: 0.370875251591
Rotor drag coefficient from turbine: 0.519054910693

DICPCG:  Solving for p_rgh, Initial residual = 7.07010267204e-05, Final residual = 2.17919556812e-06, No Iterations 2
time step continuity errors : sum local = 5.94234715991e-05, global = -3.96958706097e-06, cumulative = -0.039486944974
DICPCG:  Solving for p_rgh, Initial residual = 2.61744765582e-06, Final residual = 9.3871466254e-08, No Iterations 5
Velocity BC on patch inlet
3D_2D Absorption BC on patch outlet
"Correction Levels" 1( -0.00555992747557 )

time step continuity errors : sum local = 2.55961043832e-06, global = 2.92469907002e-07, cumulative = -0.0394866525041
DICPCG:  Solving for p_rgh, Initial residual = 3.32134305302e-07, Final residual = 7.44122461021e-08, No Iterations 1
Velocity BC on patch inlet
3D_2D Absorption BC on patch outlet
"Correction Levels" 1( -0.00555992747557 )

time step continuity errors : sum local = 2.02897082815e-06, global = 2.64889773108e-07, cumulative = -0.0394863876143
ExecutionTime = 77.34 s  ClockTime = 84 s

Courant Number mean: 0.0523611668995 max: 0.33520209261
Interface Courant Number mean: 0.00904174045332 max: 0.258515612611
deltaT = 0.025
Time = 14.9

PIMPLE: iteration 1
alpha.water BC on patch inlet
MULES: Solving for alpha.water
alpha.water BC on patch inlet
Phase-1 volume fraction = 0.664811208055  Min(alpha.water) = -8.23964409231e-23  Max(alpha.water) = 1.00003700753
alpha.water BC on patch inlet
MULES: Solving for alpha.water
alpha.water BC on patch inlet
Phase-1 volume fraction = 0.664806782654  Min(alpha.water) = -8.23334374199e-23  Max(alpha.water) = 1.000038655
Velocity BC on patch inlet
3D_2D Absorption BC on patch outlet
"Correction Levels" 1( -0.0056065052769 )

Force on turbine.blade1: 
(60.7236796159 2.3940876319 14.9541961281)

Force on turbine.blade2: 
(60.3396074407 11.7879914207 -9.57832668749)

Force on turbine.blade3: 
(60.7909609187 -14.211190602 -5.4279857036)

Force on turbine.hub: 
(1.96997383347 -0.00237608700186 -0.0148417587434)

Force on turbine.tower: 
(12.8172577337 -0.427606605434 0)

Azimuthal angle (degrees) of turbine: 4599.09556765
Tip speed ratio of turbine: 4
Power coefficient from turbine: 0.370845426231
Rotor drag coefficient from turbine: 0.518981026529

DICPCG:  Solving for p_rgh, Initial residual = 7.07270235756e-05, Final residual = 2.18670354424e-06, No Iterations 2
time step continuity errors : sum local = 5.96306970435e-05, global = -4.15831296765e-06, cumulative = -0.0394905459273
DICPCG:  Solving for p_rgh, Initial residual = 2.62204379273e-06, Final residual = 9.27346894779e-08, No Iterations 5
Velocity BC on patch inlet
3D_2D Absorption BC on patch outlet
"Correction Levels" 1( -0.0056065052769 )

time step continuity errors : sum local = 2.52872124464e-06, global = 2.93817469392e-07, cumulative = -0.0394902521098
DICPCG:  Solving for p_rgh, Initial residual = 3.32987479329e-07, Final residual = 7.36802202386e-08, No Iterations 1
Velocity BC on patch inlet
3D_2D Absorption BC on patch outlet
"Correction Levels" 1( -0.0056065052769 )

time step continuity errors : sum local = 2.00909737673e-06, global = 2.65994202553e-07, cumulative = -0.0394899861156
ExecutionTime = 77.48 s  ClockTime = 84 s

Courant Number mean: 0.0523603640036 max: 0.33456875873
Interface Courant Number mean: 0.00904723917619 max: 0.258674343113
deltaT = 0.025
Time = 14.925

PIMPLE: iteration 1
alpha.water BC on patch inlet
MULES: Solving for alpha.water
alpha.water BC on patch inlet
Phase-1 volume fraction = 0.664802418125  Min(alpha.water) = -8.22689123428e-23  Max(alpha.water) = 1.00003476614
alpha.water BC on patch inlet
MULES: Solving for alpha.water
alpha.water BC on patch inlet
Phase-1 volume fraction = 0.664798058546  Min(alpha.water) = -8.22044378343e-23  Max(alpha.water) = 1.0000305108
Velocity BC on patch inlet
3D_2D Absorption BC on patch outlet
"Correction Levels" 1( -0.00565328099919 )

Force on turbine.blade1: 
(60.7363966618 4.37755884845 14.488051031)

Force on turbine.blade2: 
(60.3562151741 10.4032431883 -11.0830457443)

Force on turbine.blade3: 
(60.7963689441 -14.8298352735 -3.47498312505)

Force on turbine.hub: 
(1.9700312284 -0.00426530762349 -0.0141165422674)

Force on turbine.tower: 
(12.8166311543 -0.423942639869 0)

Azimuthal angle (degrees) of turbine: 4606.81217095
Tip speed ratio of turbine: 4
Power coefficient from turbine: 0.370885245694
Rotor drag coefficient from turbine: 0.519079247826

DICPCG:  Solving for p_rgh, Initial residual = 7.08588706095e-05, Final residual = 2.19155883034e-06, No Iterations 2
time step continuity errors : sum local = 5.97642548371e-05, global = -4.9054057587e-06, cumulative = -0.0394948915214
DICPCG:  Solving for p_rgh, Initial residual = 2.62754246955e-06, Final residual = 8.99673228047e-08, No Iterations 5
Velocity BC on patch inlet
3D_2D Absorption BC on patch outlet
"Correction Levels" 1( -0.00565328099919 )

time step continuity errors : sum local = 2.45330915135e-06, global = 2.94235068862e-07, cumulative = -0.0394945972863
DICPCG:  Solving for p_rgh, Initial residual = 3.32255520488e-07, Final residual = 7.16707132349e-08, No Iterations 1
Velocity BC on patch inlet
3D_2D Absorption BC on patch outlet
"Correction Levels" 1( -0.00565328099919 )

time step continuity errors : sum local = 1.95434385008e-06, global = 2.68668463891e-07, cumulative = -0.0394943286178
ExecutionTime = 77.58 s  ClockTime = 85 s

Courant Number mean: 0.0523596423317 max: 0.334787289826
Interface Courant Number mean: 0.00905240993429 max: 0.258898870153
deltaT = 0.025
Time = 14.95

PIMPLE: iteration 1
alpha.water BC on patch inlet
MULES: Solving for alpha.water
alpha.water BC on patch inlet
Phase-1 volume fraction = 0.664793762706  Min(alpha.water) = -8.21394207476e-23  Max(alpha.water) = 1.00003194841
alpha.water BC on patch inlet
MULES: Solving for alpha.water
alpha.water BC on patch inlet
Phase-1 volume fraction = 0.664789471921  Min(alpha.water) = -8.20744550841e-23  Max(alpha.water) = 1.0000331215
Velocity BC on patch inlet
3D_2D Absorption BC on patch outlet
"Correction Levels" 1( -0.00570038804249 )

Force on turbine.blade1: 
(60.7774257811 6.28257355958 13.7675226664)

Force on turbine.blade2: 
(60.3440446175 8.8088138957 -12.3626295607)

Force on turbine.blade3: 
(60.7737467017 -15.1596452912 -1.45202434372)

Force on turbine.hub: 
(1.97012789145 -0.00588569837531 -0.0128978172752)

Force on turbine.tower: 
(12.8181226918 -0.421391343949 0)

Azimuthal angle (degrees) of turbine: 4614.52877425
Tip speed ratio of turbine: 4
Power coefficient from turbine: 0.370633691542
Rotor drag coefficient from turbine: 0.519097127397

DICPCG:  Solving for p_rgh, Initial residual = 7.08790766616e-05, Final residual = 2.20509372094e-06, No Iterations 2
time step continuity errors : sum local = 6.01342536031e-05, global = -4.66714761297e-06, cumulative = -0.0394989957655
DICPCG:  Solving for p_rgh, Initial residual = 2.64005091732e-06, Final residual = 8.59983268625e-08, No Iterations 5
Velocity BC on patch inlet
3D_2D Absorption BC on patch outlet
"Correction Levels" 1( -0.00570038804249 )

time step continuity errors : sum local = 2.34511632465e-06, global = 3.01582872711e-07, cumulative = -0.0394986941826
DICPCG:  Solving for p_rgh, Initial residual = 3.33901907112e-07, Final residual = 6.91362155092e-08, No Iterations 1
Velocity BC on patch inlet
3D_2D Absorption BC on patch outlet
"Correction Levels" 1( -0.00570038804249 )

time step continuity errors : sum local = 1.88526444789e-06, global = 2.69532516578e-07, cumulative = -0.0394984246501
ExecutionTime = 77.73 s  ClockTime = 85 s

Courant Number mean: 0.0523581418885 max: 0.335423869145
Interface Courant Number mean: 0.00905730348821 max: 0.259251727903
deltaT = 0.025
Time = 14.975

PIMPLE: iteration 1
alpha.water BC on patch inlet
MULES: Solving for alpha.water
alpha.water BC on patch inlet
Phase-1 volume fraction = 0.664785248225  Min(alpha.water) = -8.2008869721e-23  Max(alpha.water) = 1.00002554594
alpha.water BC on patch inlet
MULES: Solving for alpha.water
alpha.water BC on patch inlet
Phase-1 volume fraction = 0.664781029668  Min(alpha.water) = -8.1943336767e-23  Max(alpha.water) = 1.00002644692
Velocity BC on patch inlet
3D_2D Absorption BC on patch outlet
"Correction Levels" 1( -0.00574763693938 )

Force on turbine.blade1: 
(60.8496326926 8.08826304378 12.8214130202)

Force on turbine.blade2: 
(60.3655477027 7.06735507271 -13.4302029359)

Force on turbine.blade3: 
(60.7396087312 -15.214277372 0.59654125422)

Force on turbine.hub: 
(1.9702724433 -0.00710100811162 -0.0112564288978)

Force on turbine.tower: 
(12.8210799151 -0.420208317868 0)

Azimuthal angle (degrees) of turbine: 4622.24537755
Tip speed ratio of turbine: 4
Power coefficient from turbine: 0.370724632014
Rotor drag coefficient from turbine: 0.519265721996

DICPCG:  Solving for p_rgh, Initial residual = 7.099806274e-05, Final residual = 2.21437049943e-06, No Iterations 2
time step continuity errors : sum local = 6.03884439998e-05, global = -4.9617241825e-06, cumulative = -0.0395033863743
DICPCG:  Solving for p_rgh, Initial residual = 2.65069818497e-06, Final residual = 8.2382586421e-08, No Iterations 5
Velocity BC on patch inlet
3D_2D Absorption BC on patch outlet
"Correction Levels" 1( -0.00574763693938 )

time step continuity errors : sum local = 2.24656456629e-06, global = 3.05341045172e-07, cumulative = -0.0395030810332
DICPCG:  Solving for p_rgh, Initial residual = 3.33775537484e-07, Final residual = 6.68218444393e-08, No Iterations 1
Velocity BC on patch inlet
3D_2D Absorption BC on patch outlet
"Correction Levels" 1( -0.00574763693938 )

time step continuity errors : sum local = 1.82219465303e-06, global = 2.7007908218e-07, cumulative = -0.0395028109541
ExecutionTime = 77.84 s  ClockTime = 85 s

Courant Number mean: 0.0523562022253 max: 0.335962406257
Interface Courant Number mean: 0.00906196210757 max: 0.259528878142
deltaT = 0.025
Time = 15

PIMPLE: iteration 1
alpha.water BC on patch inlet
MULES: Solving for alpha.water
alpha.water BC on patch inlet
Phase-1 volume fraction = 0.66477688138  Min(alpha.water) = -8.18771709804e-23  Max(alpha.water) = 1.00002626385
alpha.water BC on patch inlet
MULES: Solving for alpha.water
alpha.water BC on patch inlet
Phase-1 volume fraction = 0.664772738316  Min(alpha.water) = -8.18110586199e-23  Max(alpha.water) = 1.00003012898
Velocity BC on patch inlet
3D_2D Absorption BC on patch outlet
"Correction Levels" 1( -0.00579502575592 )

Force on turbine.blade1: 
(60.8876408927 9.74277207948 11.6266428755)

Force on turbine.blade2: 
(60.376121135 5.19586011242 -14.246088324)

Force on turbine.blade3: 
(60.6982992577 -14.9888061809 2.63267694356)

Force on turbine.hub: 
(1.9703704505 -0.00779910156585 -0.00930714255821)

Force on turbine.tower: 
(12.8246450482 -0.420550757483 0)

Azimuthal angle (degrees) of turbine: 4629.96198086
Tip speed ratio of turbine: 4
Power coefficient from turbine: 0.370668359146
Rotor drag coefficient from turbine: 0.51928652979

DICPCG:  Solving for p_rgh, Initial residual = 7.11042114203e-05, Final residual = 2.22629831745e-06, No Iterations 2
time step continuity errors : sum local = 6.07147205428e-05, global = -5.22344136078e-06, cumulative = -0.0395080343955
DICPCG:  Solving for p_rgh, Initial residual = 2.66187934435e-06, Final residual = 7.96324239525e-08, No Iterations 5
Velocity BC on patch inlet
3D_2D Absorption BC on patch outlet
"Correction Levels" 1( -0.00579502575592 )

time step continuity errors : sum local = 2.17160529673e-06, global = 3.04727018027e-07, cumulative = -0.0395077296685
DICPCG:  Solving for p_rgh, Initial residual = 3.34415154589e-07, Final residual = 6.52147477065e-08, No Iterations 1
Velocity BC on patch inlet
3D_2D Absorption BC on patch outlet
"Correction Levels" 1( -0.00579502575592 )

time step continuity errors : sum local = 1.77840270308e-06, global = 2.67638436453e-07, cumulative = -0.03950746203
ExecutionTime = 77.97 s  ClockTime = 85 s

End

Finalising parallel run
